@<TRIPOS>MOLECULE
generated by VMD
   60   60    1    0    0
SMALL
NO_CHARGES
****
Energy = 0

@<TRIPOS>ATOM
      1  C        -31.5805  -46.4073   69.9365    C    1  POPC         0.000000
      2  C11      -30.8320  -46.5109   68.5868  C11    1  POPC         0.000000
      3  H12      -32.6142  -47.4088   70.0832  H12    1  POPC         0.000000
      4  O        -29.1858  -47.0246   69.7125    O    1  POPC         0.000000
      5  O14      -30.6931  -46.4907   71.0979  O14    1  POPC         0.000000
      6  O16      -31.0875  -47.5919   68.2369  O16    1  POPC         0.000000
      7  H17      -29.7510  -46.4006   68.7353  H17    1  POPC         0.000000
      8  C15      -31.3870  -45.5678   67.4014  C15    1  POPC         0.000000
      9  O        -31.2486  -44.5559   67.8754    O    1  POPC         0.000000
     10  H52      -30.8017  -45.7783   66.4758  H52    1  POPC         0.000000
     11  O1       -32.6650  -45.9001   67.0070   O1    1  POPC         0.000000
     12  C        -34.7566  -47.1000   67.0653    C    1  POPC         0.000000
     13  C1       -34.9800  -46.9991   65.6922   C1    1  POPC         0.000000
     14  HA       -35.0223  -45.9250   65.3900   HA    1  POPC         0.000000
     15  HB       -34.2321  -47.5055   65.0905   HB    1  POPC         0.000000
     16  C2       -36.3712  -47.5873   65.2406   C2    1  POPC         0.000000
     17  HS       -36.4189  -48.5862   65.6228   HS    1  POPC         0.000000
     18  C        -36.5555  -47.5804   63.7555    C    1  POPC         0.000000
     19  C21      -37.6077  -48.2329   63.2691  C21    1  POPC         0.000000
     20  C22      -37.9438  -47.6619   61.8780  C22    1  POPC         0.000000
     21  H2R      -38.6804  -46.8905   61.9105  H2R    1  POPC         0.000000
     22  H2S      -37.0863  -47.3385   61.3203  H2S    1  POPC         0.000000
     23  C3       -37.5920  -46.8296   65.8920   C3    1  POPC         0.000000
     24  HX       -38.5191  -47.1981   65.4377   HX    1  POPC         0.000000
     25  HY       -37.5556  -47.0955   66.9500   HY    1  POPC         0.000000
     26  C        -37.3972  -45.4307   65.7299    C    1  POPC         0.000000
     27  C31      -38.2690  -44.6811   66.3025  C31    1  POPC         0.000000
     28  C32      -37.8941  -43.1864   66.0784  C32    1  POPC         0.000000
     29  H2X      -38.4610  -42.4909   66.7461  H2X    1  POPC         0.000000
     30  H2Y      -36.8452  -43.0729   66.3508  H2Y    1  POPC         0.000000
     31  H        -38.3554  -48.1336   61.0982    H    1  POPC         0.000000
     32  C33      -38.0452  -42.7185   64.5973  C33    1  POPC         0.000000
     33  H3X      -39.1481  -42.6699   64.4228  H3X    1  POPC         0.000000
     34  H3Y      -37.7735  -41.6276   64.5093  H3Y    1  POPC         0.000000
     35  C34      -37.3662  -43.5300   63.4777  C34    1  POPC         0.000000
     36  H4X      -36.2663  -43.6596   63.6871  H4X    1  POPC         0.000000
     37  H4Y      -37.8557  -44.5647   63.3875  H4Y    1  POPC         0.000000
     38  H18      -30.7253  -47.9341   67.3701  H18    1  POPC         0.000000
     39  H19      -29.7510  -46.6022   70.7804  H19    1  POPC         0.000000
     40  C42      -31.2514  -45.0026   69.0275  C42    1  POPC         0.000000
     41  C        -28.7944  -46.1043   69.7190    C    1  POPC         0.000000
     42  H27      -31.2305  -44.3263   69.1737  H27    1  POPC         0.000000
     43  C43      -31.5770  -45.4024   69.9414  C43    1  POPC         0.000000
     44  H        -32.1479  -44.6913   69.5310    H    1  POPC         0.000000
     45  O30      -31.6101  -45.2892   70.3237  O30    1  POPC         0.000000
     46  H        -32.5599  -45.0360   70.5072    H    1  POPC         0.000000
     47  H        -28.4339  -45.8814   70.6248    H    1  POPC         0.000000
     48  H        -28.0568  -46.0305   69.0478    H    1  POPC         0.000000
     49  H        -28.7945  -47.3304   70.5804    H    1  POPC         0.000000
     50  H        -37.3578  -49.2007   63.2376    H    1  POPC         0.000000
     51  H        -38.3521  -48.1101   63.9254    H    1  POPC         0.000000
     52  H        -36.6619  -46.6437   63.4219    H    1  POPC         0.000000
     53  H        -35.7672  -47.9990   63.3045    H    1  POPC         0.000000
     54  H        -34.7615  -48.0812   67.2581    H    1  POPC         0.000000
     55  H        -35.5585  -46.6806   67.4907    H    1  POPC         0.000000
     56  H        -36.5140  -45.1557   66.1099    H    1  POPC         0.000000
     57  H        -37.4254  -45.1852   64.7609    H    1  POPC         0.000000
     58  H        -39.1479  -44.9340   65.8981    H    1  POPC         0.000000
     59  H        -38.2641  -44.9506   67.2655    H    1  POPC         0.000000
     60  H        -37.3130  -43.2565   62.5173    H    1  POPC         0.000000
@<TRIPOS>BOND
    1     1    43  1
    2     1     5  1
    3     1     2  1
    4     1     3  1
    5     2     6  1
    6     2     7  1
    7     2     8  1
    8     4    41  1
    9     4    49  1
   10     5    39  1
   11     6    38  1
   12     8     9  1
   13     8    10  1
   14     8    11  1
   15     9    40  1
   16    11    12  1
   17    12    13  1
   18    12    54  1
   19    12    55  1
   20    13    15  1
   21    13    14  1
   22    13    16  1
   23    16    18  1
   24    16    17  1
   25    16    23  1
   26    18    19  1
   27    18    52  1
   28    18    53  1
   29    19    20  1
   30    19    50  1
   31    19    51  1
   32    20    21  1
   33    20    22  1
   34    20    31 -1
   35    23    24  1
   36    23    25  1
   37    23    26  1
   38    26    27  1
   39    26    56  1
   40    26    57  1
   41    27    28  1
   42    27    58  1
   43    27    59  1
   44    28    32  1
   45    28    30  1
   46    28    29  1
   47    32    34  1
   48    32    35  1
   49    32    33  1
   50    35    37  1
   51    35    36  1
   52    35    60  1
   53    40    41  1
   54    40    42  1
   55    40    43  1
   56    41    47  1
   57    41    48  1
   58    43    45  1
   59    43    44  1
   60    45    46  1

@<TRIPOS>SUBSTRUCTURE
1 ****        1 TEMP                        0 ****  **** 0 ROOT
