@<TRIPOS>MOLECULE
generated by VMD
  116  115    1    0    0
SMALL
NO_CHARGES
****
Energy = 0

@<TRIPOS>ATOM
      1  C        -31.5796  -46.4077   69.9360    C    1  POPC         0.000000
      2  C11      -30.8311  -46.5113   68.5862  C11    1  POPC         0.000000
      3  H12      -32.6133  -47.4091   70.0827  H12    1  POPC         0.000000
      4  O        -29.1849  -47.0251   69.7118    O    1  POPC         0.000000
      5  O14      -30.6921  -46.4911   71.0973  O14    1  POPC         0.000000
      6  O16      -31.0867  -47.5923   68.2363  O16    1  POPC         0.000000
      7  H17      -29.7501  -46.4010   68.7347  H17    1  POPC         0.000000
      8  C15      -31.3862  -45.5682   67.4009  C15    1  POPC         0.000000
      9  O        -31.2477  -44.5563   67.8749    O    1  POPC         0.000000
     10  H52      -30.8010  -45.7787   66.4752  H52    1  POPC         0.000000
     11  O1       -32.6642  -45.9004   67.0066   O1    1  POPC         0.000000
     12  C        -34.7559  -47.1002   67.0650    C    1  POPC         0.000000
     13  C1       -34.9794  -46.9993   65.6919   C1    1  POPC         0.000000
     14  HA       -35.0216  -45.9252   65.3897   HA    1  POPC         0.000000
     15  HB       -34.2315  -47.5057   65.0901   HB    1  POPC         0.000000
     16  C2       -36.3706  -47.5874   65.2404   C2    1  POPC         0.000000
     17  HS       -36.4183  -48.5864   65.6226   HS    1  POPC         0.000000
     18  C        -36.5550  -47.5805   63.7553    C    1  POPC         0.000000
     19  C21      -37.6073  -48.2330   63.2690  C21    1  POPC         0.000000
     20  C22      -37.9434  -47.6620   61.8779  C22    1  POPC         0.000000
     21  H2R      -38.6800  -46.8905   61.9104  H2R    1  POPC         0.000000
     22  H2S      -37.0860  -47.3386   61.3201  H2S    1  POPC         0.000000
     23  C3       -37.5913  -46.8297   65.8919   C3    1  POPC         0.000000
     24  HX       -38.5185  -47.1982   65.4376   HX    1  POPC         0.000000
     25  HY       -37.5549  -47.0956   66.9499   HY    1  POPC         0.000000
     26  C        -37.3965  -45.4308   65.7298    C    1  POPC         0.000000
     27  C31      -38.2682  -44.6812   66.3024  C31    1  POPC         0.000000
     28  C32      -37.8933  -43.1865   66.0783  C32    1  POPC         0.000000
     29  H2X      -38.4601  -42.4910   66.7460  H2X    1  POPC         0.000000
     30  H2Y      -36.8444  -43.0730   66.3506  H2Y    1  POPC         0.000000
     31  C23      -38.5397  -48.8247   60.9927  C23    1  POPC         0.000000
     32  H3R      -37.7752  -49.5442   60.7641  H3R    1  POPC         0.000000
     33  H3S      -39.3792  -49.3822   61.4246  H3S    1  POPC         0.000000
     34  C24      -38.7689  -48.3188   59.5366  C24    1  POPC         0.000000
     35  H4R      -39.4346  -47.4824   59.6803  H4R    1  POPC         0.000000
     36  H4S      -37.8495  -47.8534   59.1499  H4S    1  POPC         0.000000
     37  C25      -39.3051  -49.2126   58.4386  C25    1  POPC         0.000000
     38  H5R      -38.6216  -50.0790   58.3329  H5R    1  POPC         0.000000
     39  H        -41.8043  -48.1099   52.0534    H    1  POPC         0.000000
     40  C26      -39.5023  -48.5707   57.0704  C26    1  POPC         0.000000
     41  H6R      -40.2918  -47.8142   57.1799  H6R    1  POPC         0.000000
     42  H        -40.4135  -42.8993   55.5675    H    1  POPC         0.000000
     43  C33      -38.0445  -42.7186   64.5972  C33    1  POPC         0.000000
     44  H3X      -39.1474  -42.6699   64.4228  H3X    1  POPC         0.000000
     45  H3Y      -37.7727  -41.6277   64.5092  H3Y    1  POPC         0.000000
     46  C34      -37.3656  -43.5301   63.4776  C34    1  POPC         0.000000
     47  H4X      -36.2657  -43.6597   63.6869  H4X    1  POPC         0.000000
     48  H4Y      -37.8551  -44.5648   63.3874  H4Y    1  POPC         0.000000
     49  H18      -30.7246  -47.9345   67.3695  H18    1  POPC         0.000000
     50  H19      -29.7500  -46.6026   70.7798  H19    1  POPC         0.000000
     51  C42      -31.2505  -45.0030   69.0270  C42    1  POPC         0.000000
     52  C        -28.7935  -46.1048   69.7183    C    1  POPC         0.000000
     53  H27      -31.2295  -44.3267   69.1732  H27    1  POPC         0.000000
     54  C43      -31.5760  -45.4028   69.9409  C43    1  POPC         0.000000
     55  H        -31.6586  -45.1198   70.8964    H    1  POPC         0.000000
     56  O30      -31.8044  -45.1183   69.7767  O30    1  POPC         0.000000
     57  H1       -31.3566  -44.1660   69.5646   H1    1  POPC         0.000000
     58  H        -28.4329  -45.8819   70.6241    H    1  POPC         0.000000
     59  H        -28.0559  -46.0310   69.0471    H    1  POPC         0.000000
     60  H        -28.7936  -47.3309   70.5797    H    1  POPC         0.000000
     61  C        -39.7951  -49.0095   56.2208    C    1  POPC         0.000000
     62  H        -37.3574  -49.2008   63.2374    H    1  POPC         0.000000
     63  H        -38.3516  -48.1102   63.9253    H    1  POPC         0.000000
     64  H        -36.6614  -46.6438   63.4217    H    1  POPC         0.000000
     65  H        -35.7668  -47.9992   63.3042    H    1  POPC         0.000000
     66  H        -34.7608  -48.0814   67.2578    H    1  POPC         0.000000
     67  H        -35.5577  -46.6808   67.4904    H    1  POPC         0.000000
     68  H        -36.5133  -45.1558   66.1097    H    1  POPC         0.000000
     69  H        -37.4247  -45.1853   64.7608    H    1  POPC         0.000000
     70  H        -39.1472  -44.9340   65.8981    H    1  POPC         0.000000
     71  H        -38.2633  -44.9507   67.2654    H    1  POPC         0.000000
     72  C        -37.3124  -43.2566   62.5172    C    1  POPC         0.000000
     73  C        -38.8466  -42.5784   61.4594    C    1  POPC         0.000000
     74  H        -36.3509  -43.1782   62.2537    H    1  POPC         0.000000
     75  H        -37.7699  -42.3746   62.4040    H    1  POPC         0.000000
     76  C        -38.5210  -43.5240   61.4593    C    1  POPC         0.000000
     77  H        -38.8466  -43.9967   62.2782    H    1  POPC         0.000000
     78  C        -38.8467  -43.9967   60.6406    C    1  POPC         0.000000
     79  H        -38.0588  -44.3129   60.1121    H    1  POPC         0.000000
     80  C        -39.3918  -43.3617   60.0932    C    1  POPC         0.000000
     81  H        -39.7506  -42.4002   61.8479    H    1  POPC         0.000000
     82  H        -38.7467  -42.0545   60.6135    H    1  POPC         0.000000
     83  H        -39.0787  -48.8965   55.5323    H    1  POPC         0.000000
     84  C        -40.6410  -48.5786   55.9066    C    1  POPC         0.000000
     85  H        -39.9516  -49.9819   56.3937    H    1  POPC         0.000000
     86  H        -41.3616  -49.2705   55.8613    H    1  POPC         0.000000
     87  C        -40.4887  -48.1851   54.9999    C    1  POPC         0.000000
     88  H        -40.8990  -47.8592   56.5515    H    1  POPC         0.000000
     89  H        -40.3178  -43.7269   59.9970    H    1  POPC         0.000000
     90  C        -38.9690  -43.2625   59.1924    C    1  POPC         0.000000
     91  H        -39.4211  -42.4755   60.5556    H    1  POPC         0.000000
     92  H        -38.7244  -42.3032   59.0515    H    1  POPC         0.000000
     93  C        -39.6211  -43.5546   58.4928    C    1  POPC         0.000000
     94  H        -38.1485  -43.8330   59.1532    H    1  POPC         0.000000
     95  H        -40.6556  -47.2000   55.0403    H    1  POPC         0.000000
     96  C        -41.2559  -47.3107   53.4343    C    1  POPC         0.000000
     97  H        -39.5436  -48.3599   54.7238    H    1  POPC         0.000000
     98  C        -40.9303  -48.2562   53.4343    C    1  POPC         0.000000
     99  H        -41.2559  -48.7290   54.2532    H    1  POPC         0.000000
    100  C        -41.2559  -48.7290   52.6155    C    1  POPC         0.000000
    101  H        -39.9303  -48.2562   53.4343    H    1  POPC         0.000000
    102  H        -41.8167  -49.5096   52.8916    H    1  POPC         0.000000
    103  H        -40.4680  -49.0451   52.0871    H    1  POPC         0.000000
    104  H        -42.2374  -47.1652   53.3102    H    1  POPC         0.000000
    105  H        -40.7555  -46.6549   52.8690    H    1  POPC         0.000000
    106  H        -39.2279  -44.3174   57.9795    H    1  POPC         0.000000
    107  C        -39.8649  -42.1001   56.9483    C    1  POPC         0.000000
    108  H        -40.4685  -43.8440   58.9381    H    1  POPC         0.000000
    109  C        -39.5393  -43.0456   56.9483    C    1  POPC         0.000000
    110  H        -39.8649  -43.5184   57.7672    H    1  POPC         0.000000
    111  C        -39.8650  -43.5184   56.1295    C    1  POPC         0.000000
    112  H        -38.5393  -43.0456   56.9482    H    1  POPC         0.000000
    113  H        -40.7389  -41.8830   56.5136    H    1  POPC         0.000000
    114  H        -39.2181  -41.3594   56.7667    H    1  POPC         0.000000
    115  H        -40.4258  -44.2989   56.4057    H    1  POPC         0.000000
    116  H        -39.0771  -43.8345   55.6011    H    1  POPC         0.000000
@<TRIPOS>BOND
    1     1    54  1
    2     1     5  1
    3     1     2  1
    4     1     3  1
    5     2     6  1
    6     2     7  1
    7     2     8  1
    8     4    52  1
    9     4    60  1
   10     5    50  1
   11     6    49  1
   12     8     9  1
   13     8    10  1
   14     8    11  1
   15     9    51  1
   16    11    12  1
   17    12    13  1
   18    12    66  1
   19    12    67  1
   20    13    15  1
   21    13    14  1
   22    13    16  1
   23    16    18  1
   24    16    17  1
   25    16    23  1
   26    18    19  1
   27    18    64  1
   28    18    65  1
   29    19    20  1
   30    19    62  1
   31    19    63  1
   32    20    21  1
   33    20    22  1
   34    20    31  1
   35    23    24  1
   36    23    25  1
   37    23    26  1
   38    26    27  1
   39    26    68  1
   40    26    69  1
   41    27    28  1
   42    27    70  1
   43    27    71  1
   44    28    43  1
   45    28    30  1
   46    28    29  1
   47    31    34  1
   48    31    33  1
   49    31    32  1
   50    34    36  1
   51    34    35  1
   52    34    37  1
   53    37    38  1
   54    37    40  2
   55    39   100 -1
   56    40    41  1
   57    40    61  1
   58    42   111 -1
   59    43    45  1
   60    43    46  1
   61    43    44  1
   62    46    48  1
   63    46    47  1
   64    46    72  1
   65    51    52  1
   66    51    53  1
   67    51    54  1
   68    52    58  1
   69    52    59  1
   70    54    56  1
   71    54    55  1
   72    61    83  1
   73    61    84  1
   74    61    85  1
   75    72    73  1
   76    72    74  1
   77    72    75  1
   78    73    76  1
   79    73    81  1
   80    73    82  1
   81    76    77  1
   82    76    78  2
   83    78    79  1
   84    78    80  1
   85    80    89  1
   86    80    90  1
   87    80    91  1
   88    84    86  1
   89    84    87  1
   90    84    88  1
   91    87    95  1
   92    87    96  1
   93    87    97  1
   94    90    92  1
   95    90    93  1
   96    90    94  1
   97    93   106  1
   98    93   107  1
   99    93   108  1
  100    96    98  1
  101    96   104  1
  102    96   105  1
  103    98    99  1
  104    98   100  1
  105    98   101  1
  106   100   102  1
  107   100   103  1
  108   107   109  1
  109   107   113 -1
  110   107   114 -1
  111   109   110  1
  112   109   111  1
  113   109   112  1
  114   111   115 -1
  115   111   116 -1

@<TRIPOS>SUBSTRUCTURE
1 ****        1 TEMP                        0 ****  **** 0 ROOT
