@<TRIPOS>MOLECULE
generated by VMD
  128  128    1    0    0
SMALL
NO_CHARGES
****
Energy = 0

@<TRIPOS>ATOM
      1  C        -31.5816  -46.4080   69.9366    C    1  POPC         0.000000
      2  C11      -30.8330  -46.5116   68.5870  C11    1  POPC         0.000000
      3  H12      -32.6153  -47.4095   70.0833  H12    1  POPC         0.000000
      4  O        -29.1869  -47.0254   69.7127    O    1  POPC         0.000000
      5  O14      -30.6942  -46.4915   71.0981  O14    1  POPC         0.000000
      6  O16      -31.0886  -47.5926   68.2370  O16    1  POPC         0.000000
      7  H17      -29.7520  -46.4014   68.7355  H17    1  POPC         0.000000
      8  C15      -31.3879  -45.5685   67.4016  C15    1  POPC         0.000000
      9  O        -31.2495  -44.5566   67.8756    O    1  POPC         0.000000
     10  H52      -30.8026  -45.7790   66.4760  H52    1  POPC         0.000000
     11  O1       -32.6659  -45.9007   67.0071   O1    1  POPC         0.000000
     12  C        -34.7576  -47.1005   67.0653    C    1  POPC         0.000000
     13  C1       -34.9810  -46.9995   65.6922   C1    1  POPC         0.000000
     14  HA       -35.0232  -45.9254   65.3901   HA    1  POPC         0.000000
     15  HB       -34.2331  -47.5059   65.0905   HB    1  POPC         0.000000
     16  C2       -36.3722  -47.5876   65.2406   C2    1  POPC         0.000000
     17  HS       -36.4199  -48.5866   65.6227   HS    1  POPC         0.000000
     18  C        -36.5564  -47.5807   63.7555    C    1  POPC         0.000000
     19  C21      -37.6087  -48.2331   63.2690  C21    1  POPC         0.000000
     20  C22      -37.9447  -47.6621   61.8779  C22    1  POPC         0.000000
     21  H2R      -38.6813  -46.8906   61.9104  H2R    1  POPC         0.000000
     22  H2S      -37.0872  -47.3387   61.3203  H2S    1  POPC         0.000000
     23  C3       -37.5930  -46.8299   65.8920   C3    1  POPC         0.000000
     24  HX       -38.5201  -47.1983   65.4376   HX    1  POPC         0.000000
     25  HY       -37.5566  -47.0958   66.9500   HY    1  POPC         0.000000
     26  C        -37.3981  -45.4310   65.7299    C    1  POPC         0.000000
     27  C31      -38.2699  -44.6814   66.3025  C31    1  POPC         0.000000
     28  C32      -37.8949  -43.1867   66.0785  C32    1  POPC         0.000000
     29  H2X      -38.4618  -42.4912   66.7462  H2X    1  POPC         0.000000
     30  H2Y      -36.8460  -43.0732   66.3509  H2Y    1  POPC         0.000000
     31  C23      -38.5409  -48.8248   60.9927  C23    1  POPC         0.000000
     32  H3R      -37.7764  -49.5442   60.7641  H3R    1  POPC         0.000000
     33  H3S      -39.3805  -49.3823   61.4244  H3S    1  POPC         0.000000
     34  C24      -38.7700  -48.3188   59.5366  C24    1  POPC         0.000000
     35  H4R      -39.4356  -47.4824   59.6802  H4R    1  POPC         0.000000
     36  H4S      -37.8505  -47.8534   59.1499  H4S    1  POPC         0.000000
     37  C25      -39.3061  -49.2126   58.4384  C25    1  POPC         0.000000
     38  H5S      -40.3065  -49.6709   58.7730  H5S    1  POPC         0.000000
     39  C26      -39.5031  -48.5706   57.0703  C26    1  POPC         0.000000
     40  H6S      -38.5137  -48.0903   56.7447  H6S    1  POPC         0.000000
     41  C33      -38.0459  -42.7187   64.5974  C33    1  POPC         0.000000
     42  H3X      -39.1488  -42.6701   64.4229  H3X    1  POPC         0.000000
     43  H3Y      -37.7742  -41.6278   64.5094  H3Y    1  POPC         0.000000
     44  C34      -37.3669  -43.5302   63.4778  C34    1  POPC         0.000000
     45  H4X      -36.2670  -43.6599   63.6872  H4X    1  POPC         0.000000
     46  H4Y      -37.8565  -44.5649   63.3875  H4Y    1  POPC         0.000000
     47  H18      -30.7264  -47.9348   67.3702  H18    1  POPC         0.000000
     48  H19      -29.7521  -46.6030   70.7806  H19    1  POPC         0.000000
     49  C42      -31.2524  -45.0033   69.0277  C42    1  POPC         0.000000
     50  C        -28.7954  -46.1052   69.7192    C    1  POPC         0.000000
     51  H27      -31.2314  -44.3270   69.1739  H27    1  POPC         0.000000
     52  C43      -31.5780  -45.4031   69.9416  C43    1  POPC         0.000000
     53  H        -32.1488  -44.6920   69.5312    H    1  POPC         0.000000
     54  O30      -31.6111  -45.2899   70.3239  O30    1  POPC         0.000000
     55  H        -32.5609  -45.0367   70.5074    H    1  POPC         0.000000
     56  H        -28.4349  -45.8823   70.6250    H    1  POPC         0.000000
     57  H        -28.0578  -46.0314   69.0480    H    1  POPC         0.000000
     58  H        -28.7956  -47.3313   70.5806    H    1  POPC         0.000000
     59  C        -39.7960  -49.0094   56.2207    C    1  POPC         0.000000
     60  H        -37.3588  -49.2009   63.2375    H    1  POPC         0.000000
     61  H        -38.3531  -48.1103   63.9253    H    1  POPC         0.000000
     62  H        -36.6628  -46.6440   63.4219    H    1  POPC         0.000000
     63  H        -35.7682  -47.9993   63.3045    H    1  POPC         0.000000
     64  H        -34.7626  -48.0817   67.2581    H    1  POPC         0.000000
     65  H        -35.5595  -46.6811   67.4907    H    1  POPC         0.000000
     66  H        -36.5149  -45.1561   66.1099    H    1  POPC         0.000000
     67  H        -37.4263  -45.1855   64.7609    H    1  POPC         0.000000
     68  H        -39.1488  -44.9342   65.8981    H    1  POPC         0.000000
     69  H        -38.2650  -44.9509   67.2655    H    1  POPC         0.000000
     70  C        -37.3137  -43.2567   62.5174    C    1  POPC         0.000000
     71  C        -38.8477  -42.5785   61.4595    C    1  POPC         0.000000
     72  H        -36.3522  -43.1784   62.2540    H    1  POPC         0.000000
     73  H        -37.7711  -42.3747   62.4042    H    1  POPC         0.000000
     74  H        -38.9998  -43.1865   60.6801    H    1  POPC         0.000000
     75  H        -39.6611  -42.5593   62.0410    H    1  POPC         0.000000
     76  C        -39.1959  -41.8029   60.9330    C    1  POPC         0.000000
     77  H        -40.0398  -41.4741   61.3569    H    1  POPC         0.000000
     78  C        -39.3786  -42.1011   59.9961    C    1  POPC         0.000000
     79  C        -38.8171  -41.5627   59.3677    C    1  POPC         0.000000
     80  H        -39.1493  -43.0709   59.9126    H    1  POPC         0.000000
     81  H        -37.8857  -41.9265   59.3700    H    1  POPC         0.000000
     82  H        -38.8118  -40.6098   59.6709    H    1  POPC         0.000000
     83  C        -39.2056  -41.6259   58.4484    C    1  POPC         0.000000
     84  H        -40.1391  -41.2676   58.4641    H    1  POPC         0.000000
     85  H        -39.2129  -42.5843   58.1633    H    1  POPC         0.000000
     86  C        -38.6442  -41.0874   57.8200    C    1  POPC         0.000000
     87  H        -39.0796  -48.8965   55.5322    H    1  POPC         0.000000
     88  C        -40.6418  -48.5784   55.9065    C    1  POPC         0.000000
     89  H        -39.9526  -49.9818   56.3935    H    1  POPC         0.000000
     90  H        -41.3625  -49.2702   55.8612    H    1  POPC         0.000000
     91  C        -40.4895  -48.1849   54.9998    C    1  POPC         0.000000
     92  H        -40.8997  -47.8589   56.5514    H    1  POPC         0.000000
     93  H        -40.6563  -47.1997   55.0402    H    1  POPC         0.000000
     94  C        -41.2566  -47.3103   53.4342    C    1  POPC         0.000000
     95  H        -39.5444  -48.3598   54.7237    H    1  POPC         0.000000
     96  C        -40.9311  -48.2559   53.4342    C    1  POPC         0.000000
     97  H        -41.2568  -48.7287   54.2531    H    1  POPC         0.000000
     98  C        -41.2568  -48.7286   52.6154    C    1  POPC         0.000000
     99  H        -39.9311  -48.2560   53.4342    H    1  POPC         0.000000
    100  H        -42.2381  -47.1647   53.3101    H    1  POPC         0.000000
    101  H        -40.7561  -46.6546   52.8689    H    1  POPC         0.000000
    102  H        -41.8177  -49.5092   52.8915    H    1  POPC         0.000000
    103  H        -40.4689  -49.0448   52.0870    H    1  POPC         0.000000
    104  C        -41.8019  -48.0937   52.0680    C    1  POPC         0.000000
    105  H        -39.2101  -40.3731   57.4085    H    1  POPC         0.000000
    106  C        -38.9302  -40.4227   56.2167    C    1  POPC         0.000000
    107  H        -37.8902  -40.6736   58.3301    H    1  POPC         0.000000
    108  C        -38.6045  -41.3683   56.2167    C    1  POPC         0.000000
    109  H        -38.9301  -41.8411   57.0355    H    1  POPC         0.000000
    110  C        -38.9300  -41.8410   55.3978    C    1  POPC         0.000000
    111  H        -37.6045  -41.3683   56.2167    H    1  POPC         0.000000
    112  H        -39.4908  -42.6216   55.6738    H    1  POPC         0.000000
    113  H        -38.1420  -42.1571   54.8694    H    1  POPC         0.000000
    114  C        -39.4752  -41.2061   54.8504    C    1  POPC         0.000000
    115  H        -39.8504  -40.2903   55.8484    H    1  POPC         0.000000
    116  H        -38.3118  -39.7604   55.7937    H    1  POPC         0.000000
    117  H        -42.7279  -48.4588   51.9717    H    1  POPC         0.000000
    118  C        -41.3791  -47.9945   51.1672    C    1  POPC         0.000000
    119  H        -41.8312  -47.2075   52.5304    H    1  POPC         0.000000
    120  H        -41.1345  -47.0352   51.0262    H    1  POPC         0.000000
    121  H        -42.0312  -48.2865   50.4676    H    1  POPC         0.000000
    122  H        -40.5587  -48.5649   51.1281    H    1  POPC         0.000000
    123  H        -40.4011  -41.5713   54.7540    H    1  POPC         0.000000
    124  C        -39.0523  -41.1068   53.9497    C    1  POPC         0.000000
    125  H        -39.5046  -40.3199   55.3128    H    1  POPC         0.000000
    126  H        -38.8077  -40.1474   53.8088    H    1  POPC         0.000000
    127  H        -39.7042  -41.3988   53.2499    H    1  POPC         0.000000
    128  H        -38.2318  -41.6771   53.9106    H    1  POPC         0.000000
@<TRIPOS>BOND
    1     1    52  1
    2     1     5  1
    3     1     2  1
    4     1     3  1
    5     2     6  1
    6     2     7  1
    7     2     8  1
    8     4    50  1
    9     4    58  1
   10     5    48  1
   11     6    47  1
   12     8     9  1
   13     8    10  1
   14     8    11  1
   15     9    49  1
   16    11    12  1
   17    12    13  1
   18    12    64  1
   19    12    65  1
   20    13    15  1
   21    13    14  1
   22    13    16  1
   23    16    18  1
   24    16    17  1
   25    16    23  1
   26    18    19  1
   27    18    62  1
   28    18    63  1
   29    19    20  1
   30    19    60  1
   31    19    61  1
   32    20    21  1
   33    20    22  1
   34    20    31  1
   35    23    24  1
   36    23    25  1
   37    23    26  1
   38    26    27  1
   39    26    66  1
   40    26    67  1
   41    27    28  1
   42    27    68  1
   43    27    69  1
   44    28    41  1
   45    28    30  1
   46    28    29  1
   47    31    34  1
   48    31    33  1
   49    31    32  1
   50    34    36  1
   51    34    35  1
   52    34    37  1
   53    37    38  1
   54    37    39  2
   55    39    40  1
   56    39    59  1
   57    41    43  1
   58    41    44  1
   59    41    42  1
   60    44    46  1
   61    44    45  1
   62    44    70  1
   63    49    50  1
   64    49    51  1
   65    49    52  1
   66    50    56  1
   67    50    57  1
   68    52    54  1
   69    52    53  1
   70    54    55  1
   71    59    87  1
   72    59    88  1
   73    59    89  1
   74    70    71  1
   75    70    72  1
   76    70    73  1
   77    71    74  1
   78    71    75  1
   79    71    76  1
   80    76    77  1
   81    76    78  2
   82    78    79  1
   83    78    80  1
   84    79    81  1
   85    79    82  1
   86    79    83  1
   87    83    84  1
   88    83    85  1
   89    83    86  1
   90    86   105  1
   91    86   106  1
   92    86   107  1
   93    88    90  1
   94    88    91  1
   95    88    92  1
   96    91    93  1
   97    91    94  1
   98    91    95  1
   99    94    96  1
  100    94   100  1
  101    94   101  1
  102    96    97  1
  103    96    98  1
  104    96    99  1
  105    98   102  1
  106    98   103  1
  107    98   104  1
  108   104   117 -1
  109   104   118 -1
  110   104   119 -1
  111   106   108  1
  112   106   115 -1
  113   106   116 -1
  114   108   109  1
  115   108   110  1
  116   108   111  1
  117   110   112 -1
  118   110   113 -1
  119   110   114 -1
  120   114   123 -1
  121   114   124 -1
  122   114   125 -1
  123   118   120 -1
  124   118   121 -1
  125   118   122 -1
  126   124   126 -1
  127   124   127 -1
  128   124   128 -1

@<TRIPOS>SUBSTRUCTURE
1 ****        1 TEMP                        0 ****  **** 0 ROOT
