@<TRIPOS>MOLECULE
generated by VMD
  148  148    1    0    0
SMALL
NO_CHARGES
****
Energy = 0

@<TRIPOS>ATOM
      1  C        -33.7167  -47.9048   74.2902    C    1  POPC         0.000000
      2  O11      -32.2941  -47.7322   73.7075    O    1  POPC         0.000000
      3  H12      -35.1985  -46.6940   71.9595  H12    1  POPC         0.000000
      4  H        -32.5735  -50.6171   73.4966    H    1  POPC         0.000000
      5  C14      -34.1330  -46.7697   75.1153  C14    1  POPC         0.000000
      6  H3       -35.0555  -44.5848   73.3245   H3    1  POPC         0.000000
      7  C15      -31.8452  -49.0876   72.5674  C15    1  POPC         0.000000
      8  C51      -31.4276  -49.4791   74.5442  C51    1  POPC         0.000000
      9  H52      -33.1786  -46.5231   72.0487  H52    1  POPC         0.000000
     10  H74      -34.6490  -46.9872   75.9441  H74    1  POPC         0.000000
     11  O19      -33.3194  -46.3241   75.4882    O    1  POPC         0.000000
     12  H20      -31.1112  -49.9281   75.3789  H20    1  POPC         0.000000
     13  O23      -30.5575  -51.3554   75.0608  O23    1  POPC         0.000000
     14  C42      -32.6122  -49.2028   74.3257  C42    1  POPC         0.000000
     15  H25      -30.4802  -49.2604   73.2367  H25    1  POPC         0.000000
     16  O26      -32.7269  -50.4716   74.4741  O26    1  POPC         0.000000
     17  H27      -32.7208  -49.0557   73.6584  H27    1  POPC         0.000000
     18  C43      -33.6034  -48.8886   74.4617  C43    1  POPC         0.000000
     19  H29      -32.8473  -49.9029   75.8136  H29    1  POPC         0.000000
     20  O30      -34.5280  -49.0836   73.9455  O30    1  POPC         0.000000
     21  H80      -32.5061  -46.8087   75.1663  H80    1  POPC         0.000000
     22  C7       -30.8995  -46.7026   70.1252    C    1  POPC         0.000000
     23  C11      -30.2309  -46.8448   68.7380  C11    1  POPC         0.000000
     24  H11      -30.0258  -46.7725   71.2680  H12    1  POPC         0.000000
     25  H12      -29.5412  -44.0520   69.4609    H    1  POPC         0.000000
     26 C102      -31.9451  -47.7131   70.2858    C    1  POPC         0.000000
     27 O104      -31.6565  -48.5815   70.6878    O    1  POPC         0.000000
     28  C9       -30.7068  -45.8759   67.5782  C15    1  POPC         0.000000
     29  C10      -30.5757  -44.8575   68.0521  C51    1  POPC         0.000000
     30  H14      -30.1291  -46.0761   66.6533  H52    1  POPC         0.000000
     31  P1       -32.6440  -47.4528   67.9166   P1    1  POPC         0.000000
     32  O3       -32.7320  -47.3418   69.3714   O3    1  POPC         0.000000
     33  O4       -31.9939  -48.6511   67.3745   O4    1  POPC         0.000000
     34  O1       -31.9917  -46.2011   67.1888   O1    1  POPC         0.000000
     35  O2       -34.0908  -47.3862   67.2308   O2    1  POPC         0.000000
     36  C1       -34.2980  -47.2814   65.8550   C1    1  POPC         0.000000
     37  HA       -34.3289  -46.2060   65.5568   HA    1  POPC         0.000000
     38  HB       -33.5500  -47.7909   65.2557   HB    1  POPC         0.000000
     39  C2       -35.6895  -47.8582   65.3893   C2    1  POPC         0.000000
     40  HS       -35.7476  -48.8577   65.7677   HS    1  POPC         0.000000
     41  N21      -35.8598  -47.8439   63.9028    N    1  POPC         0.000000
     42  C21      -36.9126  -48.4864   63.4044  C21    1  POPC         0.000000
     43  O22      -37.6344  -49.2623   64.0436  O22    1  POPC         0.000000
     44  C22      -37.2320  -47.9083   62.0119  C22    1  POPC         0.000000
     45  H2R      -37.9626  -47.1311   62.0411  H2R    1  POPC         0.000000
     46  H2S      -36.3669  -47.5899   61.4640  H2S    1  POPC         0.000000
     47  C3       -36.9103  -47.0927   66.0322   C3    1  POPC         0.000000
     48  O        -37.8361  -47.4524   65.5684    O    1  POPC         0.000000
     49  HY       -36.8849  -47.3623   67.0897   HY    1  POPC         0.000000
     50  C31      -36.7029  -45.6949   65.8775    C    1  POPC         0.000000
     51  C17      -37.5741  -44.9404   66.4441  C31    1  POPC         0.000000
     52  H32      -38.5702  -45.3437   67.0123    H    1  POPC         0.000000
     53  C32      -37.1862  -43.4480   66.2288  C32    1  POPC         0.000000
     54  H2X      -37.7538  -42.7503   66.8936  H2X    1  POPC         0.000000
     55  H2Y      -36.1389  -43.3438   66.5115  H2Y    1  POPC         0.000000
     56  C23      -37.8291  -49.0634   61.1180  C23    1  POPC         0.000000
     57  H3R      -37.0680  -49.7881   60.8944  H3R    1  POPC         0.000000
     58  H3S      -38.6759  -49.6166   61.5399  H3S    1  POPC         0.000000
     59  C24      -38.0405  -48.5509   59.6613  C24    1  POPC         0.000000
     60  H4R      -38.7007  -47.7097   59.8025  H4R    1  POPC         0.000000
     61  H4S      -37.1149  -48.0916   59.2847  H4S    1  POPC         0.000000
     62  C25      -38.5732  -49.4370   58.5551  C25    1  POPC         0.000000
     63  H5R      -37.8955  -50.3084   58.4527  H5R    1  POPC         0.000000
     64  H5S      -39.5803  -49.8887   58.8798  H5S    1  POPC         0.000000
     65  C26      -38.7538  -48.7889   57.1883  C26    1  POPC         0.000000
     66  H6R      -39.5385  -48.0268   57.2931  H6R    1  POPC         0.000000
     67  H6S      -37.7577  -48.3142   56.8725  H6S    1  POPC         0.000000
     68  C27      -39.2235  -49.7104   56.0513  C27    1  POPC         0.000000
     69  H7R      -38.3621  -50.3735   55.7433  H7R    1  POPC         0.000000
     70  H7S      -40.0591  -50.4446   56.4079  H7S    1  POPC         0.000000
     71  C28      -39.9242  -48.9498   54.9036  C28    1  POPC         0.000000
     72  H8R      -40.9035  -48.5973   55.4353  H8R    1  POPC         0.000000
     73  H8S      -39.3466  -48.0541   54.4818  H8S    1  POPC         0.000000
     74  C29      -40.2471  -49.9333   53.7371  C29    1  POPC         0.000000
     75  H91      -41.0529  -50.6949   54.4130  H91    1  POPC         0.000000
     76 C210      -39.7932  -49.9019   52.4187 C210    1  POPC         0.000000
     77 H101      -40.1965  -50.7156   51.8561 H101    1  POPC         0.000000
     78 C211      -38.8245  -48.9525   51.7340 C211    1  POPC         0.000000
     79 H11R      -38.5352  -48.0400   52.3897 H11R    1  POPC         0.000000
     80 H11S      -37.9133  -49.4638   51.6792 H11S    1  POPC         0.000000
     81 C212      -39.3356  -48.3550   50.4810 C212    1  POPC         0.000000
     82 H12R      -40.2234  -47.7284   50.6762 H12R    1  POPC         0.000000
     83 H12S      -38.5807  -47.7447   49.9951 H12S    1  POPC         0.000000
     84 C213      -39.7790  -49.2939   49.3794 C213    1  POPC         0.000000
     85 H13R      -38.9166  -49.8920   49.0427 H13R    1  POPC         0.000000
     86 H13S      -40.6306  -49.9758   49.6919 H13S    1  POPC         0.000000
     87 C214      -40.3704  -48.4942   48.2321 C214    1  POPC         0.000000
     88 H14R      -41.2444  -48.0325   48.6220 H14R    1  POPC         0.000000
     89 H14S      -39.6373  -47.7791   47.9261 H14S    1  POPC         0.000000
     90 C215      -40.6893  -49.2963   46.9675 C215    1  POPC         0.000000
     91 H15R      -39.7711  -49.7745   46.5491 H15R    1  POPC         0.000000
     92 H15S      -41.3521  -50.0414   47.4154 H15S    1  POPC         0.000000
     93 C216      -41.4084  -48.4835   45.8351 C216    1  POPC         0.000000
     94 H16R      -42.4842  -48.4122   46.0566 H16R    1  POPC         0.000000
     95 H16S      -40.9949  -47.4655   45.7363 H16S    1  POPC         0.000000
     96  H        -41.4527  -48.6984   44.8594    H    1  POPC         0.000000
     97  C33      -37.3194  -42.9739   64.7476  C33    1  POPC         0.000000
     98  H3X      -38.4203  -42.9160   64.5638  H3X    1  POPC         0.000000
     99  H3Y      -37.0385  -41.8850   64.6656  H3Y    1  POPC         0.000000
    100  C34      -36.6365  -43.7862   63.6317  C34    1  POPC         0.000000
    101  H4X      -35.5396  -43.9251   63.8511  H4X    1  POPC         0.000000
    102  H4Y      -37.1331  -44.8177   63.5337  H4Y    1  POPC         0.000000
    103  C35      -36.9458  -43.1542   62.2583  C35    1  POPC         0.000000
    104  H5X      -37.9832  -42.8499   62.1583  H5X    1  POPC         0.000000
    105  H5Y      -36.4022  -42.1805   62.1435  H5Y    1  POPC         0.000000
    106  C36      -36.6309  -44.0471   61.0454  C36    1  POPC         0.000000
    107  H6X      -35.4949  -44.1866   61.0306  H6X    1  POPC         0.000000
    108  H6Y      -37.0809  -45.0858   61.1711  H6Y    1  POPC         0.000000
    109  C37      -37.0816  -43.6033   59.7033  C37    1  POPC         0.000000
    110  H7X      -38.1948  -43.4295   59.7563  H7X    1  POPC         0.000000
    111  C38      -36.9876  -44.5224   58.4892  C38    1  POPC         0.000000
    112  H8X      -35.9249  -44.8059   58.4872  H8X    1  POPC         0.000000
    113  C39      -37.4893  -43.8391   57.1274  C39    1  POPC         0.000000
    114  H9X      -38.5891  -43.5407   57.2448  H9X    1  POPC         0.000000
    115  H9Y      -36.7555  -42.9813   56.9240  H9Y    1  POPC         0.000000
    116 C310      -37.5673  -44.6877   55.8716 C310    1  POPC         0.000000
    117 H10X      -36.5764  -45.1439   55.6894 H10X    1  POPC         0.000000
    118 H10Y      -38.3478  -45.3366   55.9912 H10Y    1  POPC         0.000000
    119 C311      -37.9512  -43.7919   54.6894 C311    1  POPC         0.000000
    120 H11X      -38.8540  -43.1124   54.9349 H11X    1  POPC         0.000000
    121 H11Y      -37.1047  -43.1687   54.4399 H11Y    1  POPC         0.000000
    122 C312      -38.5183  -44.6565   53.4340 C312    1  POPC         0.000000
    123 H12X      -37.7612  -45.4178   53.2036 H12X    1  POPC         0.000000
    124 H12Y      -39.3875  -45.2417   53.8072 H12Y    1  POPC         0.000000
    125 C313      -38.8715  -43.7019   52.2448 C313    1  POPC         0.000000
    126 H13X      -39.8183  -43.2384   52.6209 H13X    1  POPC         0.000000
    127 H13Y      -38.0642  -42.9174   52.2617 H13Y    1  POPC         0.000000
    128 C314      -39.0356  -44.4124   50.9112 C314    1  POPC         0.000000
    129 H14X      -38.0330  -44.8263   50.4981 H14X    1  POPC         0.000000
    130 H14Y      -39.7828  -45.2602   51.1555 H14Y    1  POPC         0.000000
    131  H79      -39.3453  -44.0059   50.0514    H    1  POPC         0.000000
    132  H84      -32.7961  -47.4205   70.7222  H74    1  POPC         0.000000
    133  H19      -32.2637  -47.9984   69.3809  H19    1  POPC         0.000000
    134  H86      -31.2731  -44.2387   67.6888  H20    1  POPC         0.000000
    135  O15      -29.6659  -44.5121   67.8195  O23    1  POPC         0.000000
    136  C48      -30.5777  -45.2979   69.2042  C42    1  POPC         0.000000
    137  H87      -29.1940  -45.1914   67.2557  H25    1  POPC         0.000000
    138  O16      -30.5412  -44.0421   69.4681  O26    1  POPC         0.000000
    139  H88      -29.9655  -45.5688   69.3779  H27    1  POPC         0.000000
    140  C49      -30.8564  -45.6935   70.1750  C43    1  POPC         0.000000
    141  H89      -31.9680  -44.3820   69.3660  H29    1  POPC         0.000000
    142  O13      -29.9509  -45.2065   70.2963    O    1  POPC         0.000000
    143  H87      -31.4682  -45.4980   70.2611    H    1  POPC         0.000000
    144  H92      -35.2581  -49.2012   74.6189    H    1  POPC         0.000000
    145  H93      -35.0019  -46.9985   62.0008    H    1  POPC         0.000000
    146  H90      -37.6099  -48.1495   64.8881    H    1  POPC         0.000000
    147  H91      -35.9581  -45.2509   65.3789    H    1  POPC         0.000000
    148  H        -31.3679  -49.4502   71.0900    H    1  POPC         0.000000
@<TRIPOS>BOND
    1     1    18  1
    2     1     5  1
    3     1     2  1
    4     1     3  1
    5     2     7  1
    6     4    16  1
    7     5    11  1
    8     5     6  1
    9     5    10  1
   10     7   142  1
   11     7     8  1
   12     7     9  1
   13     8    12  1
   14     8    13  1
   15     8    14  1
   16    11    21  1
   17    13    15  1
   18    14    16  1
   19    14    17  1
   20    14    18  1
   21    18    19  1
   22    18    20  1
   23    20   144  1
   24    22   140  1
   25    22    26  1
   26    22    23  1
   27    22    24  1
   28    23    28  1
   29    25   138  1
   30    26   133  1
   31    26    27  1
   32    26   132  1
   33    27   148  1
   34    28    29  1
   35    28    30  1
   36    28    34  1
   37    29   134  1
   38    29   135  1
   39    29   136  1
   40    31    35  1
   41    31    34  1
   42    31    32  1
   43    31    33  1
   44    35    36  1
   45    36    38  1
   46    36    37  1
   47    36    39  1
   48    39    41  1
   49    39    40  1
   50    39    47  1
   51    41    42  1
   52    41   145  1
   53    42    44  1
   54    42    43  1
   55    44    45  1
   56    44    46  1
   57    44    56  1
   58    47    48  1
   59    47    49  1
   60    47    50  1
   61    48   146  1
   62    50    51  2
   63    50   147  1
   64    51    53  1
   65    51    52  1
   66    53    97  1
   67    53    55  1
   68    53    54  1
   69    56    59  1
   70    56    58  1
   71    56    57  1
   72    59    61  1
   73    59    60  1
   74    59    62  1
   75    62    63  1
   76    62    64  1
   77    62    65  1
   78    65    67  1
   79    65    66  1
   80    65    68  1
   81    68    71  1
   82    68    69  1
   83    68    70  1
   84    71    73  1
   85    71    72  1
   86    71    74  1
   87    74    76  2
   88    74    75  1
   89    76    77  1
   90    76    78  1
   91    78    81  1
   92    78    79  1
   93    78    80  1
   94    81    84  1
   95    81    83  1
   96    81    82  1
   97    84    87  1
   98    84    86  1
   99    84    85  1
  100    87    90  1
  101    87    89  1
  102    87    88  1
  103    90    93  1
  104    90    92  1
  105    90    91  1
  106    93    95  1
  107    93    94  1
  108    93    96 -1
  109    97    99  1
  110    97   100  1
  111    97    98  1
  112   100   103  1
  113   100   102  1
  114   100   101  1
  115   103   104  1
  116   103   105  1
  117   103   106  1
  118   106   108  1
  119   106   109  1
  120   106   107  1
  121   109   111  2
  122   109   110  1
  123   111   112  1
  124   111   113  1
  125   113   116  1
  126   113   114  1
  127   113   115  1
  128   116   118  1
  129   116   117  1
  130   116   119  1
  131   119   122  1
  132   119   120  1
  133   119   121  1
  134   122   124  1
  135   122   123  1
  136   122   125  1
  137   125   128  1
  138   125   126  1
  139   125   127  1
  140   128   129  1
  141   128   130  1
  142   128   131  1
  143   135   137  1
  144   136   138  1
  145   136   139  1
  146   136   140  1
  147   140   142  1
  148   140   143  1

@<TRIPOS>SUBSTRUCTURE
1 ****        1 TEMP                        0 ****  **** 0 ROOT
