@<TRIPOS>MOLECULE
generated by VMD
  127  128    1    0    0
SMALL
NO_CHARGES
****
Energy = 0

@<TRIPOS>ATOM
      1  C        -33.7159  -47.9046   74.2900    C    1  POPC         0.000000
      2  O11      -32.2933  -47.7321   73.7073    O    1  POPC         0.000000
      3  H12      -35.1977  -46.6938   71.9593  H12    1  POPC         0.000000
      4  H        -32.5730  -50.6170   73.4964    H    1  POPC         0.000000
      5  C14      -34.1321  -46.7695   75.1151  C14    1  POPC         0.000000
      6  H3       -35.0545  -44.5845   73.3243   H3    1  POPC         0.000000
      7  C15      -31.8446  -49.0876   72.5672  C15    1  POPC         0.000000
      8  C51      -31.4269  -49.4791   74.5440  C51    1  POPC         0.000000
      9  H52      -33.1778  -46.5230   72.0485  H52    1  POPC         0.000000
     10  H74      -34.6481  -46.9869   75.9439  H74    1  POPC         0.000000
     11  O19      -33.3185  -46.3239   75.4880    O    1  POPC         0.000000
     12  H20      -31.1105  -49.9281   75.3787  H20    1  POPC         0.000000
     13  O23      -30.5570  -51.3554   75.0606  O23    1  POPC         0.000000
     14  C42      -32.6115  -49.2027   74.3255  C42    1  POPC         0.000000
     15  H25      -30.4796  -49.2605   73.2365  H25    1  POPC         0.000000
     16  O26      -32.7263  -50.4715   74.4739  O26    1  POPC         0.000000
     17  H27      -32.7201  -49.0556   73.6582  H27    1  POPC         0.000000
     18  C43      -33.6027  -48.8884   74.4615  C43    1  POPC         0.000000
     19  H29      -32.8466  -49.9027   75.8134  H29    1  POPC         0.000000
     20  O30      -34.5273  -49.0834   73.9454  O30    1  POPC         0.000000
     21  H80      -32.5052  -46.8086   75.1661  H80    1  POPC         0.000000
     22  C7       -30.8988  -46.7027   70.1249    C    1  POPC         0.000000
     23  C11      -30.2302  -46.8450   68.7377  C11    1  POPC         0.000000
     24  H11      -30.0251  -46.7726   71.2677  H12    1  POPC         0.000000
     25  H12      -29.5403  -44.0522   69.4605    H    1  POPC         0.000000
     26 C102      -31.9444  -47.7131   70.2856    C    1  POPC         0.000000
     27 O104      -31.6559  -48.5815   70.6876    O    1  POPC         0.000000
     28  C9       -30.7061  -45.8761   67.5779  C15    1  POPC         0.000000
     29  C10      -30.5749  -44.8577   68.0518  C51    1  POPC         0.000000
     30  H14      -30.1284  -46.0763   66.6530  H52    1  POPC         0.000000
     31  P1       -32.6434  -47.4528   67.9164   P1    1  POPC         0.000000
     32  O3       -32.7313  -47.3418   69.3712   O3    1  POPC         0.000000
     33  O4       -31.9934  -48.6512   67.3743   O4    1  POPC         0.000000
     34  O1       -31.9910  -46.2012   67.1885   O1    1  POPC         0.000000
     35  O2       -34.0902  -47.3862   67.2306   O2    1  POPC         0.000000
     36  C1       -34.2975  -47.2814   65.8548   C1    1  POPC         0.000000
     37  HA       -34.3283  -46.2060   65.5566   HA    1  POPC         0.000000
     38  HB       -33.5495  -47.7909   65.2555   HB    1  POPC         0.000000
     39  C2       -35.6890  -47.8581   65.3892   C2    1  POPC         0.000000
     40  HS       -35.7472  -48.8576   65.7676   HS    1  POPC         0.000000
     41  N21      -35.8593  -47.8438   63.9027    N    1  POPC         0.000000
     42  C21      -36.9122  -48.4863   63.4043  C21    1  POPC         0.000000
     43  O22      -37.6340  -49.2621   64.0436  O22    1  POPC         0.000000
     44  C22      -37.2316  -47.9082   62.0118  C22    1  POPC         0.000000
     45  H2R      -37.9622  -47.1309   62.0410  H2R    1  POPC         0.000000
     46  H2S      -36.3665  -47.5898   61.4639  H2S    1  POPC         0.000000
     47  C3       -36.9097  -47.0925   66.0321   C3    1  POPC         0.000000
     48  O        -37.8356  -47.4521   65.5683    O    1  POPC         0.000000
     49  HY       -36.8843  -47.3621   67.0896   HY    1  POPC         0.000000
     50  C31      -36.7022  -45.6947   65.8774    C    1  POPC         0.000000
     51  C17      -37.5734  -44.9401   66.4440  C31    1  POPC         0.000000
     52  H32      -38.5695  -45.3433   67.0122    H    1  POPC         0.000000
     53  C32      -37.1854  -43.4478   66.2286  C32    1  POPC         0.000000
     54  H2X      -37.7529  -42.7500   66.8934  H2X    1  POPC         0.000000
     55  H2Y      -36.1381  -43.3436   66.5113  H2Y    1  POPC         0.000000
     56  C23      -37.8288  -49.0632   61.1180  C23    1  POPC         0.000000
     57  H3R      -37.0678  -49.7880   60.8944  H3R    1  POPC         0.000000
     58  H3S      -38.6756  -49.6164   61.5399  H3S    1  POPC         0.000000
     59  C24      -38.0402  -48.5508   59.6613  C24    1  POPC         0.000000
     60  H4R      -38.7004  -47.7095   59.8025  H4R    1  POPC         0.000000
     61  H4S      -37.1146  -48.0915   59.2846  H4S    1  POPC         0.000000
     62  C25      -38.5730  -49.4369   58.5551  C25    1  POPC         0.000000
     63  H5R      -37.8954  -50.3083   58.4527  H5R    1  POPC         0.000000
     64  H5S      -39.5801  -49.8885   58.8798  H5S    1  POPC         0.000000
     65  C26      -38.7536  -48.7888   57.1883  C26    1  POPC         0.000000
     66  H6R      -39.5383  -48.0266   57.2931  H6R    1  POPC         0.000000
     67  H6S      -37.7575  -48.3142   56.8725  H6S    1  POPC         0.000000
     68  C27      -39.2234  -49.7103   56.0513  C27    1  POPC         0.000000
     69  H7R      -38.3621  -50.3734   55.7433  H7R    1  POPC         0.000000
     70  H7S      -40.0591  -50.4444   56.4080  H7S    1  POPC         0.000000
     71  C28      -39.9241  -48.9496   54.9036  C28    1  POPC         0.000000
     72  H8R      -40.9034  -48.5971   55.4354  H8R    1  POPC         0.000000
     73  H8S      -39.3464  -48.0540   54.4818  H8S    1  POPC         0.000000
     74  C29      -40.2471  -49.9332   53.7372  C29    1  POPC         0.000000
     75  H91      -41.0529  -50.6947   54.4131  H91    1  POPC         0.000000
     76 C210      -39.7932  -49.9018   52.4188 C210    1  POPC         0.000000
     77 H101      -40.1966  -50.7155   51.8562 H101    1  POPC         0.000000
     78 C211      -38.8245  -48.9525   51.7340 C211    1  POPC         0.000000
     79 H11R      -38.5351  -48.0400   52.3897 H11R    1  POPC         0.000000
     80 H11S      -37.9133  -49.4639   51.6792 H11S    1  POPC         0.000000
     81 C212      -39.3356  -48.3550   50.4810 C212    1  POPC         0.000000
     82 H12R      -40.2234  -47.7284   50.6762 H12R    1  POPC         0.000000
     83 H12S      -38.5807  -47.7447   49.9951 H12S    1  POPC         0.000000
     84  H        -39.6467  -48.8810   49.6894    H    1  POPC         0.000000
     85  H        -37.7970  -44.4831   54.9201    H    1  POPC         0.000000
     86  C33      -37.3186  -42.9737   64.7474  C33    1  POPC         0.000000
     87  H3X      -38.4195  -42.9157   64.5636  H3X    1  POPC         0.000000
     88  H3Y      -37.0376  -41.8848   64.6654  H3Y    1  POPC         0.000000
     89  C34      -36.6358  -43.7861   63.6315  C34    1  POPC         0.000000
     90  H4X      -35.5389  -43.9250   63.8509  H4X    1  POPC         0.000000
     91  H4Y      -37.1325  -44.8175   63.5335  H4Y    1  POPC         0.000000
     92  C35      -36.9451  -43.1541   62.2581  C35    1  POPC         0.000000
     93  H5X      -37.9825  -42.8497   62.1581  H5X    1  POPC         0.000000
     94  H5Y      -36.4014  -42.1804   62.1433  H5Y    1  POPC         0.000000
     95  C36      -36.6303  -44.0470   61.0452  C36    1  POPC         0.000000
     96  H6X      -35.4943  -44.1866   61.0304  H6X    1  POPC         0.000000
     97  H6Y      -37.0803  -45.0857   61.1710  H6Y    1  POPC         0.000000
     98  C37      -37.0810  -43.6032   59.7031  C37    1  POPC         0.000000
     99  H7X      -38.1942  -43.4293   59.7561  H7X    1  POPC         0.000000
    100  C38      -36.9871  -44.5224   58.4890  C38    1  POPC         0.000000
    101  H8X      -35.9244  -44.8059   58.4870  H8X    1  POPC         0.000000
    102  C39      -37.4888  -43.8391   57.1272  C39    1  POPC         0.000000
    103  H9X      -38.5886  -43.5406   57.2447  H9X    1  POPC         0.000000
    104  H9Y      -36.7549  -42.9813   56.9238  H9Y    1  POPC         0.000000
    105 C310      -37.5669  -44.6877   55.8715 C310    1  POPC         0.000000
    106 H10X      -36.5760  -45.1440   55.6892 H10X    1  POPC         0.000000
    107 H10Y      -38.3474  -45.3365   55.9911 H10Y    1  POPC         0.000000
    108  H84      -32.7954  -47.4205   70.7220  H74    1  POPC         0.000000
    109  H19      -32.2631  -47.9984   69.3807  H19    1  POPC         0.000000
    110  H86      -31.2723  -44.2388   67.6885  H20    1  POPC         0.000000
    111  O15      -29.6651  -44.5124   67.8191  O23    1  POPC         0.000000
    112  C48      -30.5769  -45.2981   69.2039  C42    1  POPC         0.000000
    113  H87      -29.1933  -45.1917   67.2553  H25    1  POPC         0.000000
    114  O16      -30.5403  -44.0422   69.4677  O26    1  POPC         0.000000
    115  H88      -29.9647  -45.5690   69.3776  H27    1  POPC         0.000000
    116  C49      -30.8556  -45.6936   70.1747  C43    1  POPC         0.000000
    117  O13      -29.9501  -45.2067   70.2960    O    1  POPC         0.000000
    118  H87      -31.4674  -45.4981   70.2608    H    1  POPC         0.000000
    119  H92      -35.2574  -49.2009   74.6188    H    1  POPC         0.000000
    120  H93      -35.0014  -46.9985   62.0006    H    1  POPC         0.000000
    121  H90      -37.6094  -48.1493   64.8880    H    1  POPC         0.000000
    122  H91      -35.9574  -45.2508   65.3787    H    1  POPC         0.000000
    123  H        -31.3673  -49.4503   71.0898    H    1  POPC         0.000000
    124  H        -37.3190  -45.4596   58.5955    H    1  POPC         0.000000
    125  H        -36.6536  -42.7095   59.5670    H    1  POPC         0.000000
    126  H        -40.4553  -50.5211   51.9967    H    1  POPC         0.000000
    127  H        -40.1974  -50.3679   52.8380    H    1  POPC         0.000000
@<TRIPOS>BOND
    1     1    18  1
    2     1     5  1
    3     1     2  1
    4     1     3  1
    5     2     7  1
    6     4    16  1
    7     5    11  1
    8     5     6  1
    9     5    10  1
   10     7   117  1
   11     7     8  1
   12     7     9  1
   13     8    12  1
   14     8    13  1
   15     8    14  1
   16    11    21  1
   17    13    15  1
   18    14    16  1
   19    14    17  1
   20    14    18  1
   21    18    19  1
   22    18    20  1
   23    20   119  1
   24    22   116  1
   25    22    26  1
   26    22    23  1
   27    22    24  1
   28    23    28  1
   29    25   114  1
   30    26   109  1
   31    26    27  1
   32    26   108  1
   33    27   123  1
   34    28    29  1
   35    28    30  1
   36    28    34  1
   37    29   110  1
   38    29   111  1
   39    29   112  1
   40    31    35  1
   41    31    34  1
   42    31    32  1
   43    31    33  1
   44    35    36  1
   45    36    38  1
   46    36    37  1
   47    36    39  1
   48    39    41  1
   49    39    40  1
   50    39    47  1
   51    41    42  1
   52    41   120  1
   53    42    44  1
   54    42    43  1
   55    44    45  1
   56    44    46  1
   57    44    56  1
   58    47    48  1
   59    47    49  1
   60    47    50  1
   61    48   121  1
   62    50    51  2
   63    50   122  1
   64    51    53  1
   65    51    52  1
   66    53    86  1
   67    53    55  1
   68    53    54  1
   69    56    59  1
   70    56    58  1
   71    56    57  1
   72    59    61  1
   73    59    60  1
   74    59    62  1
   75    62    63  1
   76    62    64  1
   77    62    65  1
   78    65    67  1
   79    65    66  1
   80    65    68  1
   81    68    71  1
   82    68    69  1
   83    68    70  1
   84    71    73  1
   85    71    72  1
   86    71    74  1
   87    74    76  1
   88    74    75  1
   89    74   127  1
   90    76    77  1
   91    76    78  1
   92    76   126  1
   93    78    81  1
   94    78    79  1
   95    78    80  1
   96    81    83  1
   97    81    82  1
   98    81    84 -1
   99    85   105 -1
  100    86    88  1
  101    86    89  1
  102    86    87  1
  103    89    92  1
  104    89    91  1
  105    89    90  1
  106    92    93  1
  107    92    94  1
  108    92    95  1
  109    95    97  1
  110    95    98  1
  111    95    96  1
  112    98   100  1
  113    98    99  1
  114    98   125  1
  115   100   101  1
  116   100   102  1
  117   100   124  1
  118   102   105  1
  119   102   103  1
  120   102   104  1
  121   105   107  1
  122   105   106  1
  123   111   113  1
  124   112   114  1
  125   112   115  1
  126   112   116  1
  127   116   117  1
  128   116   118  1

@<TRIPOS>SUBSTRUCTURE
1 ****        1 TEMP                        0 ****  **** 0 ROOT
