@<TRIPOS>MOLECULE
generated by VMD
   48   48    1    0    0
SMALL
NO_CHARGES
****
Energy = 0

@<TRIPOS>ATOM
      1  C        -29.4031  -46.9110   66.2060    C    1  POPC         0.000000
      2  C11      -30.5403  -45.8723   66.0624  C11    1  POPC         0.000000
      3  H12      -29.8160  -48.2490   65.8424  H12    1  POPC         0.000000
      4  O        -29.3962  -45.0529   64.5588    O    1  POPC         0.000000
      5  O14      -28.2091  -46.5726   65.4294  O14    1  POPC         0.000000
      6  O16      -31.2954  -46.4174   65.3631  O16    1  POPC         0.000000
      7  H17      -30.1688  -44.9564   65.5871  H17    1  POPC         0.000000
      8  C15      -31.3870  -45.5678   67.4014  C15    1  POPC         0.000000
      9  O        -30.5643  -45.1915   68.0718    O    1  POPC         0.000000
     10  H52      -31.0034  -46.2197   68.2208  H52    1  POPC         0.000000
     11  O1       -32.6650  -45.9001   67.0070   O1    1  POPC         0.000000
     12  C        -34.7566  -47.1000   67.0653    C    1  POPC         0.000000
     13  C1       -34.9800  -46.9991   65.6922   C1    1  POPC         0.000000
     14  H        -38.2673  -43.6812   66.3135    H    1  POPC         0.000000
     15  HB       -34.2321  -47.5055   65.0905   HB    1  POPC         0.000000
     16  C2       -36.3712  -47.5873   65.2406   C2    1  POPC         0.000000
     17  HS       -36.4189  -48.5862   65.6228   HS    1  POPC         0.000000
     18  C        -36.5555  -47.5804   63.7555    C    1  POPC         0.000000
     19  C21      -37.6077  -48.2329   63.2691  C21    1  POPC         0.000000
     20  C22      -37.9438  -47.6619   61.8780  C22    1  POPC         0.000000
     21  H2R      -38.6804  -46.8905   61.9105  H2R    1  POPC         0.000000
     22  H2S      -37.0863  -47.3385   61.3203  H2S    1  POPC         0.000000
     23  H        -37.2054  -47.2967   65.7093    H    1  POPC         0.000000
     24  C        -37.3972  -45.4307   65.7299    C    1  POPC         0.000000
     25  C31      -38.2690  -44.6811   66.3025  C31    1  POPC         0.000000
     26  H        -38.3554  -48.1336   61.0982    H    1  POPC         0.000000
     27  H18      -32.1463  -45.9641   65.0982  H18    1  POPC         0.000000
     28  H19      -28.3692  -45.7123   64.9446  H19    1  POPC         0.000000
     29  C42      -29.6707  -45.7562   67.4319  C42    1  POPC         0.000000
     30  C        -28.9885  -44.3450   65.1358    C    1  POPC         0.000000
     31  H27      -29.2900  -45.5095   67.9547  H27    1  POPC         0.000000
     32  C43      -29.0368  -46.4979   67.0457  C43    1  POPC         0.000000
     33  H        -28.0753  -46.7669   67.1024    H    1  POPC         0.000000
     34  O30      -29.1262  -46.5216   67.4349  O30    1  POPC         0.000000
     35  H        -29.8978  -47.1465   67.5543    H    1  POPC         0.000000
     36  H        -28.0139  -44.2453   64.9351    H    1  POPC         0.000000
     37  H        -29.4428  -43.4663   64.9891    H    1  POPC         0.000000
     38  H        -28.6407  -45.1311   63.9084    H    1  POPC         0.000000
     39  H        -37.3578  -49.2007   63.2376    H    1  POPC         0.000000
     40  H        -38.3521  -48.1101   63.9254    H    1  POPC         0.000000
     41  H        -36.6619  -46.6437   63.4219    H    1  POPC         0.000000
     42  H        -35.7672  -47.9990   63.3045    H    1  POPC         0.000000
     43  H        -34.7615  -48.0812   67.2581    H    1  POPC         0.000000
     44  H        -34.6587  -46.0843   65.4475    H    1  POPC         0.000000
     45  H        -36.5140  -45.1557   66.1099    H    1  POPC         0.000000
     46  H        -37.4254  -45.1852   64.7609    H    1  POPC         0.000000
     47  H        -39.1479  -44.9340   65.8981    H    1  POPC         0.000000
     48  H        -38.2641  -44.9506   67.2655    H    1  POPC         0.000000
@<TRIPOS>BOND
    1     1    32  1
    2     1     5  1
    3     1     2  1
    4     1     3  1
    5     2     6  1
    6     2     7  1
    7     2     8  1
    8     4    30  1
    9     4    38  1
   10     5    28  1
   11     6    27  1
   12     8     9  1
   13     8    10  1
   14     8    11  1
   15     9    29  1
   16    11    12  1
   17    12    13  1
   18    12    43  1
   19    12    24  1
   20    13    15  1
   21    13    16  1
   22    13    44 -1
   23    14    25  1
   24    16    18  1
   25    16    17  1
   26    16    23  1
   27    18    19  1
   28    18    41  1
   29    18    42  1
   30    19    20  1
   31    19    39  1
   32    19    40  1
   33    20    21  1
   34    20    22  1
   35    20    26  1
   36    24    25  1
   37    24    45  1
   38    24    46  1
   39    25    47  1
   40    25    48  1
   41    29    30  1
   42    29    31  1
   43    29    32  1
   44    30    36  1
   45    30    37  1
   46    32    34  1
   47    32    33 -1
   48    34    35 -1

@<TRIPOS>SUBSTRUCTURE
1 ****        1 TEMP                        0 ****  **** 0 ROOT
