@<TRIPOS>MOLECULE
generated by VMD
  147  148    1    0    0
SMALL
NO_CHARGES
****
Energy = 0

@<TRIPOS>ATOM
      1  C        -34.2097  -47.5845   72.4157    C    1  POPC         0.000000
      2  O11      -32.6749  -47.4916   72.2447    O    1  POPC         0.000000
      3  H12      -34.8029  -48.6693   69.6651  H12    1  POPC         0.000000
      4  H        -32.8365  -49.7225   74.1001    H    1  POPC         0.000000
      5  C14      -34.8970  -46.3450   72.0503  C14    1  POPC         0.000000
      6  H3       -35.1620  -46.2455   69.0919   H3    1  POPC         0.000000
      7  C15      -31.8457  -49.0874   72.5676  C15    1  POPC         0.000000
      8  C51      -32.1358  -47.9358   74.2483  C51    1  POPC         0.000000
      9  H52      -32.5664  -46.9084   74.3998  H52    1  POPC         0.000000
     10  H74      -35.6663  -46.0750   72.6297  H74    1  POPC         0.000000
     11  O19      -34.2674  -45.5776   72.1701    O    1  POPC         0.000000
     12  H20      -32.1242  -47.6124   75.1938  H20    1  POPC         0.000000
     13  O23      -31.4810  -48.6832   76.1344  O23    1  POPC         0.000000
     14  C42      -33.1738  -48.1889   73.6271  C42    1  POPC         0.000000
     15  H25      -30.7960  -48.4151   73.4546  H25    1  POPC         0.000000
     16  O26      -33.3206  -49.0070   74.6039  O26    1  POPC         0.000000
     17  H27      -33.0455  -48.5590   73.0568  H27    1  POPC         0.000000
     18  C43      -34.1536  -48.1299   73.2581  C43    1  POPC         0.000000
     19  H29      -33.9035  -47.7454   75.0519  H29    1  POPC         0.000000
     20  O30      -34.8399  -48.8457   72.8387  O30    1  POPC         0.000000
     21  H80      -33.3884  -45.9251   72.4962  H80    1  POPC         0.000000
     22  C7       -30.8996  -46.7031   70.1250    C    1  POPC         0.000000
     23  C11      -30.2312  -46.8456   68.7378  C11    1  POPC         0.000000
     24  H11      -30.0258  -46.7730   71.2677  H12    1  POPC         0.000000
     25  H12      -29.5406  -44.0529   69.4602    H    1  POPC         0.000000
     26 C102      -31.9455  -47.7133   70.2858    C    1  POPC         0.000000
     27 O104      -31.6571  -48.5816   70.6880    O    1  POPC         0.000000
     28  C9       -30.7069  -45.8768   67.5778  C15    1  POPC         0.000000
     29  C10      -30.5754  -44.8583   68.0516  C51    1  POPC         0.000000
     30  H14      -30.1294  -46.0773   66.6529  H52    1  POPC         0.000000
     31  P1       -32.6445  -47.4531   67.9167   P1    1  POPC         0.000000
     32  O3       -32.7329  -47.3416   69.3714   O3    1  POPC         0.000000
     33  O4       -31.9944  -48.6516   67.3751   O4    1  POPC         0.000000
     34  O1       -31.9919  -46.2017   67.1886   O1    1  POPC         0.000000
     35  O2       -34.0912  -47.3866   67.2305   O2    1  POPC         0.000000
     36  C1       -34.2980  -47.2822   65.8546   C1    1  POPC         0.000000
     37  HA       -34.3287  -46.2069   65.5560   HA    1  POPC         0.000000
     38  HB       -33.5499  -47.7920   65.2556   HB    1  POPC         0.000000
     39  C2       -35.6895  -47.8590   65.3887   C2    1  POPC         0.000000
     40  HS       -35.7477  -48.8584   65.7675   HS    1  POPC         0.000000
     41  N21      -35.8594  -47.8452   63.9022    N    1  POPC         0.000000
     42  C21      -36.9121  -48.4878   63.4038  C21    1  POPC         0.000000
     43  O22      -37.6342  -49.2634   64.0430  O22    1  POPC         0.000000
     44  C22      -37.2311  -47.9100   62.0110  C22    1  POPC         0.000000
     45  H2R      -37.9617  -47.1328   62.0398  H2R    1  POPC         0.000000
     46  H2S      -36.3659  -47.5919   61.4632  H2S    1  POPC         0.000000
     47  C3       -36.9104  -47.0932   66.0311   C3    1  POPC         0.000000
     48  O        -37.8360  -47.4530   65.5672    O    1  POPC         0.000000
     49  HY       -36.8852  -47.3624   67.0887   HY    1  POPC         0.000000
     50  C31      -36.7027  -45.6955   65.8760    C    1  POPC         0.000000
     51  C17      -37.5741  -44.9407   66.4421  C31    1  POPC         0.000000
     52  H32      -38.5703  -45.3437   67.0102    H    1  POPC         0.000000
     53  C32      -37.1859  -43.4484   66.2265  C32    1  POPC         0.000000
     54  H2X      -37.7535  -42.7504   66.8910  H2X    1  POPC         0.000000
     55  H2Y      -36.1386  -43.3442   66.5095  H2Y    1  POPC         0.000000
     56  C23      -37.8281  -49.0654   61.1173  C23    1  POPC         0.000000
     57  H3R      -37.0670  -49.7903   60.8942  H3R    1  POPC         0.000000
     58  H3S      -38.6751  -49.6184   61.5392  H3S    1  POPC         0.000000
     59  C24      -38.0391  -48.5534   59.6604  C24    1  POPC         0.000000
     60  H4R      -38.6993  -47.7121   59.8011  H4R    1  POPC         0.000000
     61  H4S      -37.1133  -48.0943   59.2839  H4S    1  POPC         0.000000
     62  C25      -38.5717  -49.4398   58.5544  C25    1  POPC         0.000000
     63  H5R      -37.8940  -50.3113   58.4524  H5R    1  POPC         0.000000
     64  H5S      -39.5788  -49.8913   58.8790  H5S    1  POPC         0.000000
     65  C26      -38.7518  -48.7921   57.1873  C26    1  POPC         0.000000
     66  H6R      -39.5365  -48.0299   57.2917  H6R    1  POPC         0.000000
     67  H6S      -37.7556  -48.3176   56.8716  H6S    1  POPC         0.000000
     68  C27      -39.2214  -49.7139   56.0505  C27    1  POPC         0.000000
     69  H7R      -38.3599  -50.3773   55.7429  H7R    1  POPC         0.000000
     70  H7S      -40.0571  -50.4480   56.4071  H7S    1  POPC         0.000000
     71  C28      -39.9217  -48.9536   54.9024  C28    1  POPC         0.000000
     72  H8R      -40.9011  -48.6009   55.4337  H8R    1  POPC         0.000000
     73  H8S      -39.3439  -48.0582   54.4805  H8S    1  POPC         0.000000
     74  C29      -40.2445  -49.9375   53.7361  C29    1  POPC         0.000000
     75  H91      -41.0504  -50.6989   54.4120  H91    1  POPC         0.000000
     76 C210      -39.7902  -49.9066   52.4178 C210    1  POPC         0.000000
     77 H101      -40.1935  -50.7205   51.8554 H101    1  POPC         0.000000
     78 C211      -38.8213  -48.9575   51.7330 C211    1  POPC         0.000000
     79 H11R      -38.5320  -48.0448   52.3886 H11R    1  POPC         0.000000
     80 H11S      -37.9101  -49.4689   51.6787 H11S    1  POPC         0.000000
     81 C212      -39.3320  -48.3604   50.4798 C212    1  POPC         0.000000
     82 H12R      -40.2197  -47.7336   50.6745 H12R    1  POPC         0.000000
     83 H12S      -38.5769  -47.7503   49.9938 H12S    1  POPC         0.000000
     84 C213      -39.7752  -49.2996   49.3783 C213    1  POPC         0.000000
     85 H13R      -38.9127  -49.8979   49.0421 H13R    1  POPC         0.000000
     86 H13S      -40.6270  -49.9814   49.6909 H13S    1  POPC         0.000000
     87 C214      -40.3662  -48.5003   48.2306 C214    1  POPC         0.000000
     88 H14R      -41.2403  -48.0383   48.6202 H14R    1  POPC         0.000000
     89 H14S      -39.6330  -47.7853   47.9245 H14S    1  POPC         0.000000
     90 C215      -40.6849  -49.3027   46.9663 C215    1  POPC         0.000000
     91 H15R      -39.7666  -49.7810   46.5482 H15R    1  POPC         0.000000
     92 H15S      -41.3478  -50.0476   47.4142 H15S    1  POPC         0.000000
     93 C216      -41.4038  -48.4902   45.8334 C216    1  POPC         0.000000
     94 H16R      -42.4796  -48.4188   46.0547 H16R    1  POPC         0.000000
     95 H16S      -40.9902  -47.4723   45.7344 H16S    1  POPC         0.000000
     96  H        -41.4479  -48.7054   44.8578    H    1  POPC         0.000000
     97  C33      -37.3186  -42.9747   64.7452  C33    1  POPC         0.000000
     98  H3X      -38.4194  -42.9167   64.5611  H3X    1  POPC         0.000000
     99  H3Y      -37.0375  -41.8858   64.6630  H3Y    1  POPC         0.000000
    100  C34      -36.6354  -43.7874   63.6297  C34    1  POPC         0.000000
    101  H4X      -35.5387  -43.9264   63.8495  H4X    1  POPC         0.000000
    102  H4Y      -37.1322  -44.8189   63.5318  H4Y    1  POPC         0.000000
    103  C35      -36.9443  -43.1557   62.2560  C35    1  POPC         0.000000
    104  H5X      -37.9817  -42.8514   62.1557  H5X    1  POPC         0.000000
    105  H5Y      -36.4005  -42.1822   62.1411  H5Y    1  POPC         0.000000
    106  C36      -36.6291  -44.0490   61.0435  C36    1  POPC         0.000000
    107  H6X      -35.4932  -44.1887   61.0291  H6X    1  POPC         0.000000
    108  H6Y      -37.0793  -45.0876   61.1693  H6Y    1  POPC         0.000000
    109  C37      -37.0794  -43.6055   59.7011  C37    1  POPC         0.000000
    110  H7X      -38.1926  -43.4316   59.7537  H7X    1  POPC         0.000000
    111  C38      -36.9852  -44.5250   58.4873  C38    1  POPC         0.000000
    112  H8X      -35.9225  -44.8085   58.4857  H8X    1  POPC         0.000000
    113  C39      -37.4864  -43.8420   57.1252  C39    1  POPC         0.000000
    114  H9X      -38.5863  -43.5437   57.2421  H9X    1  POPC         0.000000
    115  H9Y      -36.7527  -42.9841   56.9219  H9Y    1  POPC         0.000000
    116 C310      -37.5639  -44.6908   55.8695 C310    1  POPC         0.000000
    117 H10X      -36.5728  -45.1470   55.6878 H10X    1  POPC         0.000000
    118 H10Y      -38.3443  -45.3398   55.9889 H10Y    1  POPC         0.000000
    119 C311      -37.9474  -43.7953   54.6870 C311    1  POPC         0.000000
    120 H11X      -38.8504  -43.1159   54.9320 H11X    1  POPC         0.000000
    121 H11Y      -37.1009  -43.1721   54.4377 H11Y    1  POPC         0.000000
    122 C312      -38.5139  -44.6602   53.4315 C312    1  POPC         0.000000
    123 H12X      -37.7566  -45.4215   53.2016 H12X    1  POPC         0.000000
    124 H12Y      -39.3832  -45.2455   53.8045 H12Y    1  POPC         0.000000
    125 C313      -38.8668  -43.7059   52.2420 C313    1  POPC         0.000000
    126 H13X      -39.8138  -43.2425   52.6177 H13X    1  POPC         0.000000
    127 H13Y      -38.0596  -42.9213   52.2591 H13Y    1  POPC         0.000000
    128 C314      -39.0303  -44.4167   50.9085 C314    1  POPC         0.000000
    129 H14X      -38.0275  -44.8305   50.4959 H14X    1  POPC         0.000000
    130 H14Y      -39.7775  -45.2645   51.1527 H14Y    1  POPC         0.000000
    131  H79      -39.3397  -44.0104   50.0485    H    1  POPC         0.000000
    132  H84      -32.7963  -47.4203   70.7223  H74    1  POPC         0.000000
    133  H19      -32.2642  -47.9986   69.3810  H19    1  POPC         0.000000
    134  H86      -31.2727  -44.2394   67.6883  H20    1  POPC         0.000000
    135  O15      -29.6656  -44.5133   67.8188  O23    1  POPC         0.000000
    136  C48      -30.5775  -45.2986   69.2037  C42    1  POPC         0.000000
    137  H87      -29.1939  -45.1928   67.2550  H25    1  POPC         0.000000
    138  O16      -30.5406  -44.0427   69.4675  O26    1  POPC         0.000000
    139  H88      -29.9653  -45.5697   69.3775  H27    1  POPC         0.000000
    140  C49      -30.8562  -45.6940   70.1747  C43    1  POPC         0.000000
    141  O13      -29.9506  -45.2072   70.2957    O    1  POPC         0.000000
    142  H87      -31.4680  -45.4982   70.2608    H    1  POPC         0.000000
    143  H92      -35.7570  -48.6639   73.1938    H    1  POPC         0.000000
    144  H93      -35.0009  -47.0005   62.0002    H    1  POPC         0.000000
    145  H90      -37.6098  -48.1503   64.8872    H    1  POPC         0.000000
    146  H91      -35.9578  -45.2517   65.3775    H    1  POPC         0.000000
    147  H        -29.2194  -45.8876   70.3457    H    1  POPC         0.000000
@<TRIPOS>BOND
    1     1    18  1
    2     1     5  1
    3     1     2  1
    4     1     3  1
    5     2     7  1
    6     4    16  1
    7     5    11  1
    8     5     6  1
    9     5    10  1
   10     7    27  1
   11     7     8  1
   12     7     9  1
   13     8    12  1
   14     8    13  1
   15     8    14  1
   16    11    21  1
   17    13    15  1
   18    14    16  1
   19    14    17  1
   20    14    18  1
   21    18    19  1
   22    18    20  1
   23    20   143  1
   24    22   140  1
   25    22    26  1
   26    22    23  1
   27    22    24  1
   28    23    28  1
   29    25   138  1
   30    26   133  1
   31    26    27  1
   32    26   132  1
   33    28    29  1
   34    28    30  1
   35    28    34  1
   36    29   134  1
   37    29   135  1
   38    29   136  1
   39    31    35  1
   40    31    34  1
   41    31    32  1
   42    31    33  1
   43    35    36  1
   44    36    38  1
   45    36    37  1
   46    36    39  1
   47    39    41  1
   48    39    40  1
   49    39    47  1
   50    41    42  1
   51    41   144  1
   52    42    44  1
   53    42    43  1
   54    44    45  1
   55    44    46  1
   56    44    56  1
   57    47    48  1
   58    47    49  1
   59    47    50  1
   60    48   145  1
   61    50    51  2
   62    50   146  1
   63    51    53  1
   64    51    52  1
   65    53    97  1
   66    53    55  1
   67    53    54  1
   68    56    59  1
   69    56    58  1
   70    56    57  1
   71    59    61  1
   72    59    60  1
   73    59    62  1
   74    62    63  1
   75    62    64  1
   76    62    65  1
   77    65    67  1
   78    65    66  1
   79    65    68  1
   80    68    71  1
   81    68    69  1
   82    68    70  1
   83    71    73  1
   84    71    72  1
   85    71    74  1
   86    74    76  2
   87    74    75  1
   88    76    77  1
   89    76    78  1
   90    78    81  1
   91    78    79  1
   92    78    80  1
   93    81    84  1
   94    81    83  1
   95    81    82  1
   96    84    87  1
   97    84    86  1
   98    84    85  1
   99    87    90  1
  100    87    89  1
  101    87    88  1
  102    90    93  1
  103    90    92  1
  104    90    91  1
  105    93    95  1
  106    93    94  1
  107    93    96 -1
  108    97    99  1
  109    97   100  1
  110    97    98  1
  111   100   103  1
  112   100   102  1
  113   100   101  1
  114   103   104  1
  115   103   105  1
  116   103   106  1
  117   106   108  1
  118   106   109  1
  119   106   107  1
  120   109   111  2
  121   109   110  1
  122   111   112  1
  123   111   113  1
  124   113   116  1
  125   113   114  1
  126   113   115  1
  127   116   118  1
  128   116   117  1
  129   116   119  1
  130   119   122  1
  131   119   120  1
  132   119   121  1
  133   122   124  1
  134   122   123  1
  135   122   125  1
  136   125   128  1
  137   125   126  1
  138   125   127  1
  139   128   129  1
  140   128   130  1
  141   128   131  1
  142   135   137  1
  143   136   138  1
  144   136   139  1
  145   136   140  1
  146   140   141  1
  147   140   142  1
  148   141   147  1

@<TRIPOS>SUBSTRUCTURE
1 ****        1 TEMP                        0 ****  **** 0 ROOT
