@<TRIPOS>MOLECULE
generated by VMD
  155  156    1    0    0
SMALL
NO_CHARGES
****
Energy = 0

@<TRIPOS>ATOM
      1  C        -34.2116  -47.5851   72.4159    C    1  POPC         0.000000
      2  O11      -32.6768  -47.4926   72.2451    O    1  POPC         0.000000
      3  H12      -34.8048  -48.6698   69.6653  H12    1  POPC         0.000000
      4  H        -32.8390  -49.7234   74.1004    H    1  POPC         0.000000
      5  C14      -34.8986  -46.3455   72.0505  C14    1  POPC         0.000000
      6  H3       -35.1633  -46.2459   69.0921   H3    1  POPC         0.000000
      7  C15      -31.8480  -49.0886   72.5680  C15    1  POPC         0.000000
      8  C51      -32.1380  -47.9369   74.2487  C51    1  POPC         0.000000
      9  H52      -32.5683  -46.9094   74.4002  H52    1  POPC         0.000000
     10  H74      -35.6679  -46.0753   72.6298  H74    1  POPC         0.000000
     11  O19      -34.2688  -45.5782   72.1703    O    1  POPC         0.000000
     12  H20      -32.1264  -47.6135   75.1942  H20    1  POPC         0.000000
     13  O23      -31.4835  -48.6845   76.1349  O23    1  POPC         0.000000
     14  C42      -33.1760  -48.1898   73.6274  C42    1  POPC         0.000000
     15  H25      -30.7982  -48.4165   73.4551  H25    1  POPC         0.000000
     16  O26      -33.3230  -49.0078   74.6042  O26    1  POPC         0.000000
     17  H27      -33.0477  -48.5599   73.0571  H27    1  POPC         0.000000
     18  C43      -34.1557  -48.1305   73.2583  C43    1  POPC         0.000000
     19  H29      -33.9057  -47.7461   75.0521  H29    1  POPC         0.000000
     20  O30      -34.8421  -48.8462   72.8389  O30    1  POPC         0.000000
     21  H80      -33.3900  -45.9259   72.4965  H80    1  POPC         0.000000
     22  C7       -30.9011  -46.7044   70.1255    C    1  POPC         0.000000
     23  C11      -30.2326  -46.8471   68.7384  C11    1  POPC         0.000000
     24  H11      -30.0274  -46.7746   71.2683  H12    1  POPC         0.000000
     25  H12      -29.5415  -44.0545   69.4608    H    1  POPC         0.000000
     26 C102      -31.9473  -47.7144   70.2862    C    1  POPC         0.000000
     27 O104      -31.6591  -48.5828   70.6884    O    1  POPC         0.000000
     28  C9       -30.7080  -45.8782   67.5783  C15    1  POPC         0.000000
     29  C10      -30.5763  -44.8597   68.0522  C51    1  POPC         0.000000
     30  H14      -30.1305  -46.0788   66.6535  H52    1  POPC         0.000000
     31  P1       -32.6460  -47.4540   67.9171   P1    1  POPC         0.000000
     32  O3       -32.7345  -47.3425   69.3717   O3    1  POPC         0.000000
     33  O4       -31.9961  -48.6527   67.3755   O4    1  POPC         0.000000
     34  O1       -31.9930  -46.2028   67.1890   O1    1  POPC         0.000000
     35  O2       -34.0926  -47.3872   67.2307   O2    1  POPC         0.000000
     36  C1       -34.2993  -47.2828   65.8548   C1    1  POPC         0.000000
     37  HA       -34.3297  -46.2075   65.5562   HA    1  POPC         0.000000
     38  HB       -33.5512  -47.7927   65.2559   HB    1  POPC         0.000000
     39  C2       -35.6909  -47.8592   65.3888   C2    1  POPC         0.000000
     40  HS       -35.7493  -48.8586   65.7676   HS    1  POPC         0.000000
     41  N21      -35.8606  -47.8454   63.9023    N    1  POPC         0.000000
     42  C21      -36.9134  -48.4878   63.4038  C21    1  POPC         0.000000
     43  O22      -37.6358  -49.2632   64.0429  O22    1  POPC         0.000000
     44  C22      -37.2322  -47.9099   62.0109  C22    1  POPC         0.000000
     45  H2R      -37.9626  -47.1325   62.0397  H2R    1  POPC         0.000000
     46  H2S      -36.3668  -47.5920   61.4632  H2S    1  POPC         0.000000
     47  C3       -36.9116  -47.0932   66.0311   C3    1  POPC         0.000000
     48  O        -37.8373  -47.4528   65.5671    O    1  POPC         0.000000
     49  HY       -36.8866  -47.3624   67.0887   HY    1  POPC         0.000000
     50  C31      -36.7036  -45.6955   65.8760    C    1  POPC         0.000000
     51  C17      -37.5749  -44.9405   66.4420  C31    1  POPC         0.000000
     52  H32      -38.5712  -45.3433   67.0100    H    1  POPC         0.000000
     53  C32      -37.1863  -43.4483   66.2265  C32    1  POPC         0.000000
     54  H2X      -37.7538  -42.7502   66.8909  H2X    1  POPC         0.000000
     55  H2Y      -36.1390  -43.3444   66.5096  H2Y    1  POPC         0.000000
     56  C23      -37.8293  -49.0651   61.1172  C23    1  POPC         0.000000
     57  H3R      -37.0684  -49.7902   60.8941  H3R    1  POPC         0.000000
     58  H3S      -38.6765  -49.6180   61.5390  H3S    1  POPC         0.000000
     59  C24      -38.0401  -48.5531   59.6603  C24    1  POPC         0.000000
     60  H4R      -38.7001  -47.7116   59.8009  H4R    1  POPC         0.000000
     61  H4S      -37.1142  -48.0942   59.2839  H4S    1  POPC         0.000000
     62  C25      -38.5728  -49.4394   58.5542  C25    1  POPC         0.000000
     63  H5R      -37.8953  -50.3110   58.4523  H5R    1  POPC         0.000000
     64  H5S      -39.5800  -49.8906   58.8787  H5S    1  POPC         0.000000
     65  C26      -38.7526  -48.7916   57.1871  C26    1  POPC         0.000000
     66  H6R      -39.5372  -48.0292   57.2914  H6R    1  POPC         0.000000
     67  H6S      -37.7563  -48.3173   56.8715  H6S    1  POPC         0.000000
     68  C27      -39.2223  -49.7133   56.0503  C27    1  POPC         0.000000
     69  H7R      -38.3610  -50.3769   55.7427  H7R    1  POPC         0.000000
     70  H7S      -40.0582  -50.4472   56.4068  H7S    1  POPC         0.000000
     71  C28      -39.9224  -48.9528   54.9021  C28    1  POPC         0.000000
     72  H8R      -40.9017  -48.5999   55.4333  H8R    1  POPC         0.000000
     73  H8S      -39.3443  -48.0576   54.4803  H8S    1  POPC         0.000000
     74  C29      -40.2453  -49.9367   53.7358  C29    1  POPC         0.000000
     75  H91      -41.0514  -50.6979   54.4116  H91    1  POPC         0.000000
     76 C210      -39.7909  -49.9059   52.4175 C210    1  POPC         0.000000
     77 H101      -40.1943  -50.7197   51.8551 H101    1  POPC         0.000000
     78 C211      -38.8217  -48.9570   51.7328 C211    1  POPC         0.000000
     79 H11R      -38.5322  -48.0443   52.3884 H11R    1  POPC         0.000000
     80 H11S      -37.9106  -49.4686   51.6786 H11S    1  POPC         0.000000
     81 C212      -39.3322  -48.3597   50.4796 C212    1  POPC         0.000000
     82 H12R      -40.2197  -47.7327   50.6742 H12R    1  POPC         0.000000
     83 H12S      -38.5769  -47.7498   49.9936 H12S    1  POPC         0.000000
     84 C213      -39.7755  -49.2988   49.3780 C213    1  POPC         0.000000
     85 H13R      -38.9131  -49.8973   49.0419 H13R    1  POPC         0.000000
     86 H13S      -40.6274  -49.9804   49.6905 H13S    1  POPC         0.000000
     87 C214      -40.3662  -48.4994   48.2303 C214    1  POPC         0.000000
     88 H14R      -41.2402  -48.0372   48.6198 H14R    1  POPC         0.000000
     89 H14S      -39.6328  -47.7846   47.9242 H14S    1  POPC         0.000000
     90 C215      -40.6850  -49.3017   46.9659 C215    1  POPC         0.000000
     91 H15R      -39.7667  -49.7802   46.5479 H15R    1  POPC         0.000000
     92 H15S      -41.3481  -50.0465   47.4138 H15S    1  POPC         0.000000
     93 C216      -41.4036  -48.4891   45.8330 C216    1  POPC         0.000000
     94 H16R      -42.4794  -48.4174   46.0542 H16R    1  POPC         0.000000
     95 H16S      -40.9897  -47.4712   45.7340 H16S    1  POPC         0.000000
     96  C        -41.4476  -48.7042   44.8574    C    1  POPC         0.000000
     97  C33      -37.3188  -42.9746   64.7452  C33    1  POPC         0.000000
     98  H3X      -38.4196  -42.9163   64.5610  H3X    1  POPC         0.000000
     99  H3Y      -37.0375  -41.8857   64.6630  H3Y    1  POPC         0.000000
    100  C34      -36.6357  -43.7874   63.6297  C34    1  POPC         0.000000
    101  H4X      -35.5390  -43.9267   63.8496  H4X    1  POPC         0.000000
    102  H4Y      -37.1327  -44.8188   63.5318  H4Y    1  POPC         0.000000
    103  C35      -36.9443  -43.1557   62.2560  C35    1  POPC         0.000000
    104  H5X      -37.9817  -42.8511   62.1556  H5X    1  POPC         0.000000
    105  H5Y      -36.4003  -42.1823   62.1412  H5Y    1  POPC         0.000000
    106  C36      -36.6292  -44.0490   61.0435  C36    1  POPC         0.000000
    107  H6X      -35.4933  -44.1888   61.0291  H6X    1  POPC         0.000000
    108  H6Y      -37.0795  -45.0876   61.1694  H6Y    1  POPC         0.000000
    109  C37      -37.0795  -43.6055   59.7011  C37    1  POPC         0.000000
    110  H7X      -38.1927  -43.4316   59.7537  H7X    1  POPC         0.000000
    111  C38      -36.9853  -44.5250   58.4873  C38    1  POPC         0.000000
    112  H8X      -35.9226  -44.8086   58.4858  H8X    1  POPC         0.000000
    113  C39      -37.4864  -43.8420   57.1252  C39    1  POPC         0.000000
    114  H9X      -38.5863  -43.5436   57.2421  H9X    1  POPC         0.000000
    115  H9Y      -36.7526  -42.9841   56.9219  H9Y    1  POPC         0.000000
    116 C310      -37.5639  -44.6908   55.8695 C310    1  POPC         0.000000
    117 H10X      -36.5728  -45.1470   55.6878 H10X    1  POPC         0.000000
    118 H10Y      -38.3443  -45.3398   55.9889 H10Y    1  POPC         0.000000
    119 C311      -37.9474  -43.7953   54.6870 C311    1  POPC         0.000000
    120 H11X      -38.8504  -43.1159   54.9320 H11X    1  POPC         0.000000
    121 H11Y      -37.1009  -43.1721   54.4377 H11Y    1  POPC         0.000000
    122 C312      -38.5139  -44.6602   53.4315 C312    1  POPC         0.000000
    123 H12X      -37.7566  -45.4215   53.2016 H12X    1  POPC         0.000000
    124 H12Y      -39.3832  -45.2455   53.8045 H12Y    1  POPC         0.000000
    125  H        -38.8076  -44.3489   52.5277    H    1  POPC         0.000000
    126  H84      -32.7980  -47.4212   70.7226  H74    1  POPC         0.000000
    127  H19      -32.2659  -47.9996   69.3814  H19    1  POPC         0.000000
    128  H86      -31.2735  -44.2407   67.6888  H20    1  POPC         0.000000
    129  O15      -29.6664  -44.5149   67.8194  O23    1  POPC         0.000000
    130  C48      -30.5786  -45.3000   69.2042  C42    1  POPC         0.000000
    131  H87      -29.1948  -45.1945   67.2557  H25    1  POPC         0.000000
    132  O16      -30.5415  -44.0441   69.4681  O26    1  POPC         0.000000
    133  H88      -29.9665  -45.5713   69.3781  H27    1  POPC         0.000000
    134  C49      -30.8575  -45.6954   70.1752  C43    1  POPC         0.000000
    135  O13      -29.9518  -45.2088   70.2963    O    1  POPC         0.000000
    136  H87      -31.4693  -45.4994   70.2613    H    1  POPC         0.000000
    137  H92      -35.7592  -48.6642   73.1939    H    1  POPC         0.000000
    138  H93      -35.0018  -47.0009   62.0004    H    1  POPC         0.000000
    139  H90      -37.6112  -48.1501   64.8871    H    1  POPC         0.000000
    140  H91      -35.9586  -45.2519   65.3776    H    1  POPC         0.000000
    141  H        -29.2208  -45.8893   70.3464    H    1  POPC         0.000000
    142  H        -36.6520  -42.7118   59.5649    H    1  POPC         0.000000
    143  H        -37.3174  -45.4622   58.5938    H    1  POPC         0.000000
    144  C        -41.0349  -47.9547   44.3398    C    1  POPC         0.000000
    145  H        -42.4051  -48.8156   44.5914    H    1  POPC         0.000000
    146  H        -40.9458  -49.5524   44.6881    H    1  POPC         0.000000
    147  C        -41.7194  -47.5718   43.7195    C    1  POPC         0.000000
    148  H        -40.2600  -48.3086   43.8161    H    1  POPC         0.000000
    149  H        -40.7222  -47.2515   44.9784    H    1  POPC         0.000000
    150  C        -41.3935  -47.6633   42.7785    C    1  POPC         0.000000
    151  H        -41.8555  -46.6062   43.9409    H    1  POPC         0.000000
    152  H        -42.5778  -48.0720   43.8332    H    1  POPC         0.000000
    153  H        -41.3215  -46.7538   42.3691    H    1  POPC         0.000000
    154  H        -42.0439  -48.2196   42.2613    H    1  POPC         0.000000
    155  H        -40.4967  -48.1057   42.7862    H    1  POPC         0.000000
@<TRIPOS>BOND
    1     1    18  1
    2     1     5  1
    3     1     2  1
    4     1     3  1
    5     2     7  1
    6     4    16  1
    7     5    11  1
    8     5     6  1
    9     5    10  1
   10     7    27  1
   11     7     8  1
   12     7     9  1
   13     8    12  1
   14     8    13  1
   15     8    14  1
   16    11    21  1
   17    13    15  1
   18    14    16  1
   19    14    17  1
   20    14    18  1
   21    18    19  1
   22    18    20  1
   23    20   137  1
   24    22   134  1
   25    22    26  1
   26    22    23  1
   27    22    24  1
   28    23    28  1
   29    25   132  1
   30    26   127  1
   31    26    27  1
   32    26   126  1
   33    28    29  1
   34    28    30  1
   35    28    34  1
   36    29   128  1
   37    29   129  1
   38    29   130  1
   39    31    35  1
   40    31    34  1
   41    31    32  1
   42    31    33  1
   43    35    36  1
   44    36    38  1
   45    36    37  1
   46    36    39  1
   47    39    41  1
   48    39    40  1
   49    39    47  1
   50    41    42  1
   51    41   138  1
   52    42    44  1
   53    42    43  1
   54    44    45  1
   55    44    46  1
   56    44    56  1
   57    47    48  1
   58    47    49  1
   59    47    50  1
   60    48   139  1
   61    50    51  2
   62    50   140  1
   63    51    53  1
   64    51    52  1
   65    53    97  1
   66    53    55  1
   67    53    54  1
   68    56    59  1
   69    56    58  1
   70    56    57  1
   71    59    61  1
   72    59    60  1
   73    59    62  1
   74    62    63  1
   75    62    64  1
   76    62    65  1
   77    65    67  1
   78    65    66  1
   79    65    68  1
   80    68    71  1
   81    68    69  1
   82    68    70  1
   83    71    73  1
   84    71    72  1
   85    71    74  1
   86    74    76  2
   87    74    75  1
   88    76    77  1
   89    76    78  1
   90    78    81  1
   91    78    79  1
   92    78    80  1
   93    81    84  1
   94    81    83  1
   95    81    82  1
   96    84    87  1
   97    84    86  1
   98    84    85  1
   99    87    90  1
  100    87    89  1
  101    87    88  1
  102    90    93  1
  103    90    92  1
  104    90    91  1
  105    93    95  1
  106    93    94  1
  107    93    96  1
  108    96   144  1
  109    96   145  1
  110    96   146  1
  111    97    99  1
  112    97   100  1
  113    97    98  1
  114   100   103  1
  115   100   102  1
  116   100   101  1
  117   103   104  1
  118   103   105  1
  119   103   106  1
  120   106   108  1
  121   106   109  1
  122   106   107  1
  123   109   111  1
  124   109   110  1
  125   109   142  1
  126   111   112  1
  127   111   113  1
  128   111   143  1
  129   113   116  1
  130   113   114  1
  131   113   115  1
  132   116   118  1
  133   116   117  1
  134   116   119  1
  135   119   122  1
  136   119   120  1
  137   119   121  1
  138   122   124  1
  139   122   123  1
  140   122   125 -1
  141   129   131  1
  142   130   132  1
  143   130   133  1
  144   130   134  1
  145   134   135  1
  146   134   136  1
  147   135   141  1
  148   144   147  1
  149   144   148  1
  150   144   149  1
  151   147   150  1
  152   147   151  1
  153   147   152  1
  154   150   153  1
  155   150   154  1
  156   150   155  1

@<TRIPOS>SUBSTRUCTURE
1 ****        1 TEMP                        0 ****  **** 0 ROOT
