@<TRIPOS>MOLECULE
generated by VMD
  127  128    1    0    0
SMALL
NO_CHARGES
****
Energy = 0

@<TRIPOS>ATOM
      1  C        -34.2112  -47.5850   72.4159    C    1  POPC         0.000000
      2  O11      -32.6765  -47.4921   72.2451    O    1  POPC         0.000000
      3  H12      -34.8042  -48.6697   69.6652  H12    1  POPC         0.000000
      4  H        -32.8383  -49.7231   74.1004    H    1  POPC         0.000000
      5  C14      -34.8985  -46.3455   72.0505  C14    1  POPC         0.000000
      6  H3       -35.1633  -46.2459   69.0921   H3    1  POPC         0.000000
      7  C15      -31.8474  -49.0879   72.5680  C15    1  POPC         0.000000
      8  C51      -32.1376  -47.9364   74.2487  C51    1  POPC         0.000000
      9  H52      -32.5682  -46.9090   74.4001  H52    1  POPC         0.000000
     10  H74      -35.6679  -46.0754   72.6298  H74    1  POPC         0.000000
     11  O19      -34.2690  -45.5781   72.1704    O    1  POPC         0.000000
     12  H20      -32.1261  -47.6130   75.1943  H20    1  POPC         0.000000
     13  O23      -31.4830  -48.6838   76.1349  O23    1  POPC         0.000000
     14  C42      -33.1755  -48.1895   73.6273  C42    1  POPC         0.000000
     15  H25      -30.7977  -48.4156   73.4551  H25    1  POPC         0.000000
     16  O26      -33.3225  -49.0075   74.6042  O26    1  POPC         0.000000
     17  H27      -33.0471  -48.5596   73.0571  H27    1  POPC         0.000000
     18  C43      -34.1553  -48.1304   73.2583  C43    1  POPC         0.000000
     19  H29      -33.9054  -47.7459   75.0522  H29    1  POPC         0.000000
     20  O30      -34.8416  -48.8461   72.8388  O30    1  POPC         0.000000
     21  H80      -33.3900  -45.9257   72.4965  H80    1  POPC         0.000000
     22  C7       -30.9010  -46.7035   70.1256    C    1  POPC         0.000000
     23  C11      -30.2323  -46.8460   68.7384  C11    1  POPC         0.000000
     24  H11      -30.0273  -46.7735   71.2684  H12    1  POPC         0.000000
     25  H12      -29.5418  -44.0534   69.4610    H    1  POPC         0.000000
     26 C102      -31.9468  -47.7136   70.2863    C    1  POPC         0.000000
     27 O104      -31.6586  -48.5821   70.6885    O    1  POPC         0.000000
     28  C9       -30.7079  -45.8772   67.5784  C15    1  POPC         0.000000
     29  C10      -30.5764  -44.8587   68.0523  C51    1  POPC         0.000000
     30  H14      -30.1303  -46.0777   66.6536  H52    1  POPC         0.000000
     31  P1       -32.6456  -47.4534   67.9171   P1    1  POPC         0.000000
     32  O3       -32.7341  -47.3420   69.3718   O3    1  POPC         0.000000
     33  O4       -31.9954  -48.6520   67.3755   O4    1  POPC         0.000000
     34  O1       -31.9929  -46.2020   67.1891   O1    1  POPC         0.000000
     35  O2       -34.0922  -47.3869   67.2307   O2    1  POPC         0.000000
     36  C1       -34.2989  -47.2824   65.8548   C1    1  POPC         0.000000
     37  HA       -34.3295  -46.2071   65.5562   HA    1  POPC         0.000000
     38  HB       -33.5507  -47.7923   65.2559   HB    1  POPC         0.000000
     39  C2       -35.6902  -47.8592   65.3888   C2    1  POPC         0.000000
     40  HS       -35.7486  -48.8587   65.7675   HS    1  POPC         0.000000
     41  N21      -35.8600  -47.8454   63.9022    N    1  POPC         0.000000
     42  C21      -36.9127  -48.4879   63.4036  C21    1  POPC         0.000000
     43  O22      -37.6349  -49.2635   64.0428  O22    1  POPC         0.000000
     44  C22      -37.2316  -47.9101   62.0109  C22    1  POPC         0.000000
     45  H2R      -37.9621  -47.1328   62.0396  H2R    1  POPC         0.000000
     46  H2S      -36.3662  -47.5920   61.4632  H2S    1  POPC         0.000000
     47  C3       -36.9112  -47.0934   66.0310   C3    1  POPC         0.000000
     48  O        -37.8369  -47.4531   65.5670    O    1  POPC         0.000000
     49  HY       -36.8862  -47.3627   67.0887   HY    1  POPC         0.000000
     50  C31      -36.7035  -45.6957   65.8760    C    1  POPC         0.000000
     51  C17      -37.5749  -44.9410   66.4420  C31    1  POPC         0.000000
     52  H32      -38.5712  -45.3439   67.0099    H    1  POPC         0.000000
     53  C32      -37.1867  -43.4485   66.2265  C32    1  POPC         0.000000
     54  H2X      -37.7544  -42.7506   66.8910  H2X    1  POPC         0.000000
     55  H2Y      -36.1395  -43.3445   66.5097  H2Y    1  POPC         0.000000
     56  C23      -37.8285  -49.0655   61.1171  C23    1  POPC         0.000000
     57  H3R      -37.0673  -49.7903   60.8940  H3R    1  POPC         0.000000
     58  H3S      -38.6756  -49.6185   61.5388  H3S    1  POPC         0.000000
     59  C24      -38.0394  -48.5534   59.6601  C24    1  POPC         0.000000
     60  H4R      -38.6995  -47.7121   59.8008  H4R    1  POPC         0.000000
     61  H4S      -37.1135  -48.0943   59.2837  H4S    1  POPC         0.000000
     62  C25      -38.5717  -49.4397   58.5541  C25    1  POPC         0.000000
     63  H5R      -37.8941  -50.3112   58.4521  H5R    1  POPC         0.000000
     64  H5S      -39.5790  -49.8912   58.8786  H5S    1  POPC         0.000000
     65  C26      -38.7518  -48.7920   57.1870  C26    1  POPC         0.000000
     66  H6R      -39.5365  -48.0298   57.2912  H6R    1  POPC         0.000000
     67  H6S      -37.7555  -48.3175   56.8714  H6S    1  POPC         0.000000
     68  C27      -39.2211  -49.7138   56.0501  C27    1  POPC         0.000000
     69  H7R      -38.3597  -50.3772   55.7425  H7R    1  POPC         0.000000
     70  H7S      -40.0570  -50.4479   56.4066  H7S    1  POPC         0.000000
     71  C28      -39.9214  -48.9535   54.9020  C28    1  POPC         0.000000
     72  H8R      -40.9009  -48.6007   55.4331  H8R    1  POPC         0.000000
     73  H8S      -39.3435  -48.0580   54.4801  H8S    1  POPC         0.000000
     74  C29      -40.2440  -49.9373   53.7356  C29    1  POPC         0.000000
     75  H91      -41.0501  -50.6986   54.4114  H91    1  POPC         0.000000
     76 C210      -39.7896  -49.9063   52.4173 C210    1  POPC         0.000000
     77 H101      -40.1929  -50.7202   51.8549 H101    1  POPC         0.000000
     78 C211      -38.8206  -48.9573   51.7327 C211    1  POPC         0.000000
     79 H11R      -38.5314  -48.0446   52.3883 H11R    1  POPC         0.000000
     80 H11S      -37.9094  -49.4687   51.6784 H11S    1  POPC         0.000000
     81 C212      -39.3311  -48.3601   50.4794 C212    1  POPC         0.000000
     82 H12R      -40.2188  -47.7333   50.6741 H12R    1  POPC         0.000000
     83 H12S      -38.5760  -47.7500   49.9935 H12S    1  POPC         0.000000
     84  H        -39.6420  -48.8863   49.6879    H    1  POPC         0.000000
     85  H        -37.7937  -44.4864   54.9180    H    1  POPC         0.000000
     86  C33      -37.3192  -42.9749   64.7452  C33    1  POPC         0.000000
     87  H3X      -38.4200  -42.9168   64.5610  H3X    1  POPC         0.000000
     88  H3Y      -37.0381  -41.8860   64.6631  H3Y    1  POPC         0.000000
     89  C34      -36.6360  -43.7875   63.6298  C34    1  POPC         0.000000
     90  H4X      -35.5392  -43.9265   63.8496  H4X    1  POPC         0.000000
     91  H4Y      -37.1328  -44.8190   63.5317  H4Y    1  POPC         0.000000
     92  C35      -36.9446  -43.1558   62.2560  C35    1  POPC         0.000000
     93  H5X      -37.9820  -42.8514   62.1557  H5X    1  POPC         0.000000
     94  H5Y      -36.4008  -42.1823   62.1413  H5Y    1  POPC         0.000000
     95  C36      -36.6294  -44.0491   61.0435  C36    1  POPC         0.000000
     96  H6X      -35.4934  -44.1888   61.0292  H6X    1  POPC         0.000000
     97  H6Y      -37.0796  -45.0877   61.1693  H6Y    1  POPC         0.000000
     98  C37      -37.0796  -43.6055   59.7011  C37    1  POPC         0.000000
     99  H7X      -38.1927  -43.4314   59.7536  H7X    1  POPC         0.000000
    100  C38      -36.9853  -44.5250   58.4873  C38    1  POPC         0.000000
    101  H8X      -35.9226  -44.8086   58.4858  H8X    1  POPC         0.000000
    102  C39      -37.4864  -43.8420   57.1252  C39    1  POPC         0.000000
    103  H9X      -38.5863  -43.5436   57.2421  H9X    1  POPC         0.000000
    104  H9Y      -36.7526  -42.9841   56.9219  H9Y    1  POPC         0.000000
    105 C310      -37.5639  -44.6908   55.8695 C310    1  POPC         0.000000
    106 H10X      -36.5728  -45.1470   55.6878 H10X    1  POPC         0.000000
    107 H10Y      -38.3443  -45.3398   55.9889 H10Y    1  POPC         0.000000
    108  H84      -32.7977  -47.4208   70.7227  H74    1  POPC         0.000000
    109  H19      -32.2655  -47.9990   69.3814  H19    1  POPC         0.000000
    110  H86      -31.2737  -44.2397   67.6889  H20    1  POPC         0.000000
    111  O15      -29.6666  -44.5137   67.8196  O23    1  POPC         0.000000
    112  C48      -30.5787  -45.2990   69.2045  C42    1  POPC         0.000000
    113  H87      -29.1950  -45.1932   67.2559  H25    1  POPC         0.000000
    114  O16      -30.5418  -44.0432   69.4682  O26    1  POPC         0.000000
    115  H88      -29.9665  -45.5702   69.3782  H27    1  POPC         0.000000
    116  C49      -30.8576  -45.6944   70.1753  C43    1  POPC         0.000000
    117  O13      -29.9518  -45.2077   70.2965    O    1  POPC         0.000000
    118  H87      -31.4693  -45.4987   70.2614    H    1  POPC         0.000000
    119  H92      -35.7587  -48.6644   73.1938    H    1  POPC         0.000000
    120  H93      -35.0014  -47.0006   62.0003    H    1  POPC         0.000000
    121  H90      -37.6105  -48.1505   64.8870    H    1  POPC         0.000000
    122  H91      -35.9585  -45.2519   65.3775    H    1  POPC         0.000000
    123  H        -31.3702  -49.4509   71.0907    H    1  POPC         0.000000
    124  H        -40.1944  -50.3721   52.8365    H    1  POPC         0.000000
    125  H        -40.4516  -50.5255   51.9948    H    1  POPC         0.000000
    126  H        -36.6522  -42.7117   59.5649    H    1  POPC         0.000000
    127  H        -37.3174  -45.4622   58.5938    H    1  POPC         0.000000
@<TRIPOS>BOND
    1     1    18  1
    2     1     5  1
    3     1     2  1
    4     1     3  1
    5     2     7  1
    6     4    16  1
    7     5    11  1
    8     5     6  1
    9     5    10  1
   10     7   117  1
   11     7     8  1
   12     7     9  1
   13     8    12  1
   14     8    13  1
   15     8    14  1
   16    11    21  1
   17    13    15  1
   18    14    16  1
   19    14    17  1
   20    14    18  1
   21    18    19  1
   22    18    20  1
   23    20   119  1
   24    22   116  1
   25    22    26  1
   26    22    23  1
   27    22    24  1
   28    23    28  1
   29    25   114  1
   30    26   109  1
   31    26    27  1
   32    26   108  1
   33    27   123  1
   34    28    29  1
   35    28    30  1
   36    28    34  1
   37    29   110  1
   38    29   111  1
   39    29   112  1
   40    31    35  1
   41    31    34  1
   42    31    32  1
   43    31    33  1
   44    35    36  1
   45    36    38  1
   46    36    37  1
   47    36    39  1
   48    39    41  1
   49    39    40  1
   50    39    47  1
   51    41    42  1
   52    41   120  1
   53    42    44  1
   54    42    43  1
   55    44    45  1
   56    44    46  1
   57    44    56  1
   58    47    48  1
   59    47    49  1
   60    47    50  1
   61    48   121  1
   62    50    51  2
   63    50   122  1
   64    51    53  1
   65    51    52  1
   66    53    86  1
   67    53    55  1
   68    53    54  1
   69    56    59  1
   70    56    58  1
   71    56    57  1
   72    59    61  1
   73    59    60  1
   74    59    62  1
   75    62    63  1
   76    62    64  1
   77    62    65  1
   78    65    67  1
   79    65    66  1
   80    65    68  1
   81    68    71  1
   82    68    69  1
   83    68    70  1
   84    71    73  1
   85    71    72  1
   86    71    74  1
   87    74    76  1
   88    74    75  1
   89    74   124  1
   90    76    77  1
   91    76    78  1
   92    76   125  1
   93    78    81  1
   94    78    79  1
   95    78    80  1
   96    81    83  1
   97    81    82  1
   98    81    84 -1
   99    85   105 -1
  100    86    88  1
  101    86    89  1
  102    86    87  1
  103    89    92  1
  104    89    91  1
  105    89    90  1
  106    92    93  1
  107    92    94  1
  108    92    95  1
  109    95    97  1
  110    95    98  1
  111    95    96  1
  112    98   100  1
  113    98    99  1
  114    98   126  1
  115   100   101  1
  116   100   102  1
  117   100   127  1
  118   102   105  1
  119   102   103  1
  120   102   104  1
  121   105   107  1
  122   105   106  1
  123   111   113  1
  124   112   114  1
  125   112   115  1
  126   112   116  1
  127   116   117  1
  128   116   118  1

@<TRIPOS>SUBSTRUCTURE
1 ****        1 TEMP                        0 ****  **** 0 ROOT
