@<TRIPOS>MOLECULE
generated by VMD
   81   81    1    0    0
SMALL
NO_CHARGES
****
Energy = 0

@<TRIPOS>ATOM
      1  C        -34.2085  -47.5845   72.4155    C    1  POPC         0.000000
      2  O11      -32.6738  -47.4910   72.2445    O    1  POPC         0.000000
      3  H12      -34.8013  -48.6693   69.6648  H12    1  POPC         0.000000
      4  H        -32.8345  -49.7221   74.0997    H    1  POPC         0.000000
      5  C14      -34.8963  -46.3452   72.0502  C14    1  POPC         0.000000
      6  H3       -35.1614  -46.2456   69.0918   H3    1  POPC         0.000000
      7  C15      -31.8440  -49.0865   72.5673  C15    1  POPC         0.000000
      8  C51      -32.1345  -47.9351   74.2481  C51    1  POPC         0.000000
      9  H52      -32.5655  -46.9079   74.3996  H52    1  POPC         0.000000
     10  H74      -35.6657  -46.0755   72.6296  H74    1  POPC         0.000000
     11  O19      -34.2670  -45.5776   72.1700    O    1  POPC         0.000000
     12  H20      -32.1230  -47.6118   75.1936  H20    1  POPC         0.000000
     13  O23      -31.4794  -48.6824   76.1341  O23    1  POPC         0.000000
     14  C42      -33.1724  -48.1886   73.6268  C42    1  POPC         0.000000
     15  H25      -30.7945  -48.4138   73.4543  H25    1  POPC         0.000000
     16  O26      -33.3189  -49.0068   74.6036  O26    1  POPC         0.000000
     17  H27      -33.0440  -48.5586   73.0565  H27    1  POPC         0.000000
     18  C43      -34.1522  -48.1299   73.2578  C43    1  POPC         0.000000
     19  H29      -33.9023  -47.7454   75.0517  H29    1  POPC         0.000000
     20  O30      -34.8383  -48.8459   72.8384  O30    1  POPC         0.000000
     21  H80      -33.3879  -45.9248   72.4961  H80    1  POPC         0.000000
     22  C7       -30.8988  -46.7016   70.1248    C    1  POPC         0.000000
     23  C11      -30.2303  -46.8438   68.7376  C11    1  POPC         0.000000
     24  H11      -30.0250  -46.7713   71.2675  H12    1  POPC         0.000000
     25  H12      -29.5408  -44.0509   69.4602    H    1  POPC         0.000000
     26 C102      -31.9443  -47.7122   70.2856    C    1  POPC         0.000000
     27 O104      -31.6556  -48.5805   70.6877    O    1  POPC         0.000000
     28  C9       -30.7064  -45.8751   67.5777  C15    1  POPC         0.000000
     29  C10      -30.5753  -44.8566   68.0516  C51    1  POPC         0.000000
     30  H14      -30.1288  -46.0753   66.6528  H52    1  POPC         0.000000
     31  H        -40.7243  -49.5375   52.9565    H    1  POPC         0.000000
     32  H        -39.4678  -50.4739   53.3991    H    1  POPC         0.000000
     33  O1       -31.9913  -46.2004   67.1885   O1    1  POPC         0.000000
     34  C1       -34.2970  -47.2817   65.8544   C1    1  POPC         0.000000
     35  HA       -34.3281  -46.2064   65.5559   HA    1  POPC         0.000000
     36  HB       -33.5487  -47.7912   65.2554   HB    1  POPC         0.000000
     37  C2       -35.6882  -47.8590   65.3885   C2    1  POPC         0.000000
     38  HS       -35.7461  -48.8585   65.7672   HS    1  POPC         0.000000
     39  C        -35.8581  -47.8452   63.9020    C    1  POPC         0.000000
     40  C21      -36.9106  -48.4881   63.4035  C21    1  POPC         0.000000
     41  H        -36.6676  -49.4576   63.3713    H    1  POPC         0.000000
     42  C22      -37.2298  -47.9104   62.0108  C22    1  POPC         0.000000
     43  H2R      -37.9607  -47.1334   62.0396  H2R    1  POPC         0.000000
     44  H2S      -36.3647  -47.5919   61.4630  H2S    1  POPC         0.000000
     45  H        -36.5251  -47.5652   65.8503    H    1  POPC         0.000000
     46  C23      -37.8264  -49.0659   61.1170  C23    1  POPC         0.000000
     47  H3R      -37.0650  -49.7905   60.8938  H3R    1  POPC         0.000000
     48  H3S      -38.6732  -49.6193   61.5388  H3S    1  POPC         0.000000
     49  C24      -38.0376  -48.5539   59.6601  C24    1  POPC         0.000000
     50  H4R      -38.6981  -47.7128   59.8009  H4R    1  POPC         0.000000
     51  H4S      -37.1120  -48.0944   59.2836  H4S    1  POPC         0.000000
     52  C25      -38.5698  -49.4404   58.5540  C25    1  POPC         0.000000
     53  H5R      -37.8918  -50.3116   58.4520  H5R    1  POPC         0.000000
     54  H5S      -39.5768  -49.8923   58.8786  H5S    1  POPC         0.000000
     55  C26      -38.7502  -48.7927   57.1870  C26    1  POPC         0.000000
     56  H6R      -39.5352  -48.0308   57.2914  H6R    1  POPC         0.000000
     57  H6S      -37.7542  -48.3178   56.8713  H6S    1  POPC         0.000000
     58  C27      -39.2194  -49.7146   56.0501  C27    1  POPC         0.000000
     59  H7R      -38.3577  -50.3776   55.7425  H7R    1  POPC         0.000000
     60  H7S      -40.0549  -50.4490   56.4067  H7S    1  POPC         0.000000
     61  C28      -39.9200  -48.9545   54.9021  C28    1  POPC         0.000000
     62  H8R      -40.8996  -48.6022   55.4334  H8R    1  POPC         0.000000
     63  H8S      -39.3426  -48.0588   54.4802  H8S    1  POPC         0.000000
     64  C29      -40.2424  -49.9384   53.7357  C29    1  POPC         0.000000
     65  H91      -41.0481  -50.7001   54.4116  H91    1  POPC         0.000000
     66  H84      -32.7952  -47.4196   70.7221  H74    1  POPC         0.000000
     67  H19      -32.2629  -47.9976   69.3808  H19    1  POPC         0.000000
     68  H86      -31.2728  -44.2379   67.6883  H20    1  POPC         0.000000
     69  O15      -29.6656  -44.5112   67.8188  O23    1  POPC         0.000000
     70  C48      -30.5772  -45.2969   69.2037  C42    1  POPC         0.000000
     71  H87      -29.1937  -45.1905   67.2550  H25    1  POPC         0.000000
     72  O16      -30.5408  -44.0411   69.4675  O26    1  POPC         0.000000
     73  H88      -29.9649  -45.5678   69.3774  H27    1  POPC         0.000000
     74  C49      -30.8558  -45.6925   70.1746  C43    1  POPC         0.000000
     75  H        -37.6601  -48.3617   64.0534    H    1  POPC         0.000000
     76  O13      -29.9503  -45.2054   70.2957    O    1  POPC         0.000000
     77  H87      -31.4676  -45.4970   70.2607    H    1  POPC         0.000000
     78  H92      -35.7554  -48.6645   73.1935    H    1  POPC         0.000000
     79  H        -35.9543  -46.9065   63.5709    H    1  POPC         0.000000
     80  H        -31.3668  -49.4492   71.0899    H    1  POPC         0.000000
     81  H        -35.0687  -48.2681   63.4571    H    1  POPC         0.000000
@<TRIPOS>BOND
    1     1    18  1
    2     1     5  1
    3     1     2  1
    4     1     3  1
    5     2     7  1
    6     4    16  1
    7     5    11  1
    8     5     6  1
    9     5    10  1
   10     7    76  1
   11     7     8  1
   12     7     9  1
   13     8    12  1
   14     8    13  1
   15     8    14  1
   16    11    21  1
   17    13    15  1
   18    14    16  1
   19    14    17  1
   20    14    18  1
   21    18    19  1
   22    18    20  1
   23    20    78  1
   24    22    74  1
   25    22    26  1
   26    22    23  1
   27    22    24  1
   28    23    28  1
   29    25    72  1
   30    26    67  1
   31    26    27  1
   32    26    66  1
   33    27    80  1
   34    28    29  1
   35    28    30  1
   36    28    33  1
   37    29    68  1
   38    29    69  1
   39    29    70  1
   40    31    64  1
   41    32    64  1
   42    33    34  1
   43    34    36  1
   44    34    35  1
   45    34    37  1
   46    37    39  1
   47    37    38  1
   48    37    45  1
   49    39    40  1
   50    39    79 -1
   51    39    81 -1
   52    40    42  1
   53    40    41 -1
   54    40    75 -1
   55    42    43  1
   56    42    44  1
   57    42    46  1
   58    46    49  1
   59    46    48  1
   60    46    47  1
   61    49    51  1
   62    49    50  1
   63    49    52  1
   64    52    53  1
   65    52    54  1
   66    52    55  1
   67    55    57  1
   68    55    56  1
   69    55    58  1
   70    58    61  1
   71    58    59  1
   72    58    60  1
   73    61    63  1
   74    61    62  1
   75    61    64  1
   76    64    65  1
   77    69    71  1
   78    70    72  1
   79    70    73  1
   80    70    74  1
   81    74    76  1

@<TRIPOS>SUBSTRUCTURE
1 ****        1 TEMP                        0 ****  **** 0 ROOT
