@<TRIPOS>MOLECULE
generated by VMD
  147  148    1    0    0
SMALL
NO_CHARGES
****
Energy = 0

@<TRIPOS>ATOM
      1  C        -34.2103  -47.5846   72.4158    C    1  POPC         0.000000
      2  O11      -32.6756  -47.4918   72.2449    O    1  POPC         0.000000
      3  H12      -34.8035  -48.6694   69.6652  H12    1  POPC         0.000000
      4  H        -32.8373  -49.7227   74.1003    H    1  POPC         0.000000
      5  C14      -34.8976  -46.3451   72.0504  C14    1  POPC         0.000000
      6  H3       -35.1626  -46.2456   69.0920   H3    1  POPC         0.000000
      7  C15      -31.8465  -49.0876   72.5678  C15    1  POPC         0.000000
      8  C51      -32.1365  -47.9360   74.2485  C51    1  POPC         0.000000
      9  H52      -32.5671  -46.9086   74.3999  H52    1  POPC         0.000000
     10  H74      -35.6669  -46.0750   72.6298  H74    1  POPC         0.000000
     11  O19      -34.2680  -45.5777   72.1702    O    1  POPC         0.000000
     12  H20      -32.1249  -47.6126   75.1940  H20    1  POPC         0.000000
     13  O23      -31.4818  -48.6834   76.1346  O23    1  POPC         0.000000
     14  C42      -33.1745  -48.1891   73.6272  C42    1  POPC         0.000000
     15  H25      -30.7967  -48.4153   73.4548  H25    1  POPC         0.000000
     16  O26      -33.3214  -49.0071   74.6041  O26    1  POPC         0.000000
     17  H27      -33.0462  -48.5592   73.0570  H27    1  POPC         0.000000
     18  C43      -34.1543  -48.1300   73.2582  C43    1  POPC         0.000000
     19  H29      -33.9043  -47.7454   75.0521  H29    1  POPC         0.000000
     20  O30      -34.8407  -48.8457   72.8388  O30    1  POPC         0.000000
     21  H80      -33.3890  -45.9253   72.4963  H80    1  POPC         0.000000
     22  C7       -30.9002  -46.7033   70.1252    C    1  POPC         0.000000
     23  C11      -30.2317  -46.8459   68.7380  C11    1  POPC         0.000000
     24  H11      -30.0264  -46.7733   71.2679  H12    1  POPC         0.000000
     25  H12      -29.5410  -44.0532   69.4604    H    1  POPC         0.000000
     26 C102      -31.9461  -47.7134   70.2860    C    1  POPC         0.000000
     27 O104      -31.6578  -48.5818   70.6882    O    1  POPC         0.000000
     28  C9       -30.7073  -45.8771   67.5780  C15    1  POPC         0.000000
     29  C10      -30.5758  -44.8586   68.0518  C51    1  POPC         0.000000
     30  H14      -30.1298  -46.0776   66.6531  H52    1  POPC         0.000000
     31  P1       -32.6450  -47.4532   67.9169   P1    1  POPC         0.000000
     32  O3       -32.7334  -47.3418   69.3716   O3    1  POPC         0.000000
     33  O4       -31.9949  -48.6519   67.3753   O4    1  POPC         0.000000
     34  O1       -31.9924  -46.2019   67.1888   O1    1  POPC         0.000000
     35  O2       -34.0917  -47.3867   67.2306   O2    1  POPC         0.000000
     36  C1       -34.2985  -47.2823   65.8547   C1    1  POPC         0.000000
     37  HA       -34.3291  -46.2070   65.5561   HA    1  POPC         0.000000
     38  HB       -33.5504  -47.7922   65.2558   HB    1  POPC         0.000000
     39  C2       -35.6899  -47.8590   65.3888   C2    1  POPC         0.000000
     40  HS       -35.7483  -48.8585   65.7676   HS    1  POPC         0.000000
     41  N21      -35.8598  -47.8453   63.9023    N    1  POPC         0.000000
     42  C21      -36.9125  -48.4878   63.4038  C21    1  POPC         0.000000
     43  O22      -37.6347  -49.2633   64.0431  O22    1  POPC         0.000000
     44  C22      -37.2315  -47.9100   62.0111  C22    1  POPC         0.000000
     45  H2R      -37.9620  -47.1327   62.0398  H2R    1  POPC         0.000000
     46  H2S      -36.3662  -47.5920   61.4633  H2S    1  POPC         0.000000
     47  C3       -36.9108  -47.0932   66.0311   C3    1  POPC         0.000000
     48  O        -37.8365  -47.4529   65.5672    O    1  POPC         0.000000
     49  HY       -36.8857  -47.3624   67.0888   HY    1  POPC         0.000000
     50  C31      -36.7031  -45.6955   65.8760    C    1  POPC         0.000000
     51  C17      -37.5744  -44.9407   66.4421  C31    1  POPC         0.000000
     52  H32      -38.5707  -45.3436   67.0101    H    1  POPC         0.000000
     53  C32      -37.1862  -43.4483   66.2265  C32    1  POPC         0.000000
     54  H2X      -37.7538  -42.7503   66.8910  H2X    1  POPC         0.000000
     55  H2Y      -36.1389  -43.3443   66.5096  H2Y    1  POPC         0.000000
     56  C23      -37.8285  -49.0654   61.1174  C23    1  POPC         0.000000
     57  H3R      -37.0674  -49.7903   60.8942  H3R    1  POPC         0.000000
     58  H3S      -38.6756  -49.6184   61.5392  H3S    1  POPC         0.000000
     59  C24      -38.0395  -48.5534   59.6604  C24    1  POPC         0.000000
     60  H4R      -38.6996  -47.7120   59.8011  H4R    1  POPC         0.000000
     61  H4S      -37.1137  -48.0943   59.2839  H4S    1  POPC         0.000000
     62  C25      -38.5720  -49.4397   58.5544  C25    1  POPC         0.000000
     63  H5R      -37.8944  -50.3112   58.4524  H5R    1  POPC         0.000000
     64  H5S      -39.5792  -49.8912   58.8790  H5S    1  POPC         0.000000
     65  C26      -38.7521  -48.7921   57.1873  C26    1  POPC         0.000000
     66  H6R      -39.5368  -48.0298   57.2916  H6R    1  POPC         0.000000
     67  H6S      -37.7559  -48.3176   56.8716  H6S    1  POPC         0.000000
     68  C27      -39.2216  -49.7139   56.0505  C27    1  POPC         0.000000
     69  H7R      -38.3602  -50.3773   55.7429  H7R    1  POPC         0.000000
     70  H7S      -40.0575  -50.4479   56.4071  H7S    1  POPC         0.000000
     71  C28      -39.9219  -48.9536   54.9024  C28    1  POPC         0.000000
     72  H8R      -40.9014  -48.6008   55.4336  H8R    1  POPC         0.000000
     73  H8S      -39.3441  -48.0581   54.4804  H8S    1  POPC         0.000000
     74  C29      -40.2447  -49.9374   53.7361  C29    1  POPC         0.000000
     75  H91      -41.0507  -50.6987   54.4120  H91    1  POPC         0.000000
     76 C210      -39.7904  -49.9065   52.4178 C210    1  POPC         0.000000
     77 H101      -40.1937  -50.7204   51.8554 H101    1  POPC         0.000000
     78 C211      -38.8214  -48.9575   51.7330 C211    1  POPC         0.000000
     79 H11R      -38.5321  -48.0448   52.3886 H11R    1  POPC         0.000000
     80 H11S      -37.9102  -49.4690   51.6787 H11S    1  POPC         0.000000
     81 C212      -39.3320  -48.3604   50.4798 C212    1  POPC         0.000000
     82 H12R      -40.2197  -47.7336   50.6745 H12R    1  POPC         0.000000
     83 H12S      -38.5769  -47.7503   49.9938 H12S    1  POPC         0.000000
     84 C213      -39.7753  -49.2995   49.3783 C213    1  POPC         0.000000
     85 H13R      -38.9128  -49.8978   49.0421 H13R    1  POPC         0.000000
     86 H13S      -40.6271  -49.9813   49.6908 H13S    1  POPC         0.000000
     87 C214      -40.3662  -48.5002   48.2305 C214    1  POPC         0.000000
     88 H14R      -41.2403  -48.0382   48.6201 H14R    1  POPC         0.000000
     89 H14S      -39.6330  -47.7852   47.9245 H14S    1  POPC         0.000000
     90 C215      -40.6849  -49.3027   46.9662 C215    1  POPC         0.000000
     91 H15R      -39.7666  -49.7810   46.5482 H15R    1  POPC         0.000000
     92 H15S      -41.3478  -50.0475   47.4141 H15S    1  POPC         0.000000
     93 C216      -41.4037  -48.4901   45.8333 C216    1  POPC         0.000000
     94 H16R      -42.4795  -48.4187   46.0546 H16R    1  POPC         0.000000
     95 H16S      -40.9901  -47.4722   45.7343 H16S    1  POPC         0.000000
     96  H        -41.4478  -48.7053   44.8577    H    1  POPC         0.000000
     97  C33      -37.3188  -42.9747   64.7452  C33    1  POPC         0.000000
     98  H3X      -38.4196  -42.9166   64.5611  H3X    1  POPC         0.000000
     99  H3Y      -37.0377  -41.8858   64.6630  H3Y    1  POPC         0.000000
    100  C34      -36.6357  -43.7874   63.6298  C34    1  POPC         0.000000
    101  H4X      -35.5389  -43.9264   63.8495  H4X    1  POPC         0.000000
    102  H4Y      -37.1325  -44.8189   63.5318  H4Y    1  POPC         0.000000
    103  C35      -36.9444  -43.1557   62.2560  C35    1  POPC         0.000000
    104  H5X      -37.9818  -42.8513   62.1557  H5X    1  POPC         0.000000
    105  H5Y      -36.4006  -42.1822   62.1412  H5Y    1  POPC         0.000000
    106  C36      -36.6293  -44.0491   61.0435  C36    1  POPC         0.000000
    107  H6X      -35.4933  -44.1888   61.0291  H6X    1  POPC         0.000000
    108  H6Y      -37.0795  -45.0876   61.1694  H6Y    1  POPC         0.000000
    109  C37      -37.0796  -43.6055   59.7011  C37    1  POPC         0.000000
    110  H7X      -38.1927  -43.4315   59.7537  H7X    1  POPC         0.000000
    111  C38      -36.9853  -44.5250   58.4873  C38    1  POPC         0.000000
    112  H8X      -35.9226  -44.8086   58.4858  H8X    1  POPC         0.000000
    113  C39      -37.4864  -43.8420   57.1252  C39    1  POPC         0.000000
    114  H9X      -38.5863  -43.5436   57.2421  H9X    1  POPC         0.000000
    115  H9Y      -36.7526  -42.9841   56.9219  H9Y    1  POPC         0.000000
    116 C310      -37.5639  -44.6908   55.8695 C310    1  POPC         0.000000
    117 H10X      -36.5728  -45.1470   55.6878 H10X    1  POPC         0.000000
    118 H10Y      -38.3443  -45.3398   55.9889 H10Y    1  POPC         0.000000
    119 C311      -37.9474  -43.7953   54.6870 C311    1  POPC         0.000000
    120 H11X      -38.8504  -43.1159   54.9320 H11X    1  POPC         0.000000
    121 H11Y      -37.1009  -43.1721   54.4377 H11Y    1  POPC         0.000000
    122 C312      -38.5139  -44.6602   53.4315 C312    1  POPC         0.000000
    123 H12X      -37.7566  -45.4215   53.2016 H12X    1  POPC         0.000000
    124 H12Y      -39.3832  -45.2455   53.8045 H12Y    1  POPC         0.000000
    125 C313      -38.8668  -43.7059   52.2420 C313    1  POPC         0.000000
    126 H13X      -39.8138  -43.2425   52.6177 H13X    1  POPC         0.000000
    127 H13Y      -38.0596  -42.9213   52.2591 H13Y    1  POPC         0.000000
    128 C314      -39.0303  -44.4167   50.9085 C314    1  POPC         0.000000
    129 H14X      -38.0275  -44.8305   50.4959 H14X    1  POPC         0.000000
    130 H14Y      -39.7775  -45.2645   51.1527 H14Y    1  POPC         0.000000
    131  H79      -39.3397  -44.0104   50.0485    H    1  POPC         0.000000
    132  H84      -32.7969  -47.4205   70.7225  H74    1  POPC         0.000000
    133  H19      -32.2648  -47.9988   69.3812  H19    1  POPC         0.000000
    134  H86      -31.2731  -44.2396   67.6885  H20    1  POPC         0.000000
    135  O15      -29.6660  -44.5136   67.8190  O23    1  POPC         0.000000
    136  C48      -30.5780  -45.2988   69.2040  C42    1  POPC         0.000000
    137  H87      -29.1944  -45.1931   67.2553  H25    1  POPC         0.000000
    138  O16      -30.5410  -44.0430   69.4677  O26    1  POPC         0.000000
    139  H88      -29.9658  -45.5700   69.3777  H27    1  POPC         0.000000
    140  C49      -30.8568  -45.6942   70.1749  C43    1  POPC         0.000000
    141  O13      -29.9510  -45.2075   70.2960    O    1  POPC         0.000000
    142  H87      -31.4685  -45.4985   70.2610    H    1  POPC         0.000000
    143  H92      -35.7577  -48.6639   73.1939    H    1  POPC         0.000000
    144  H93      -35.0013  -47.0006   62.0003    H    1  POPC         0.000000
    145  H90      -37.6102  -48.1503   64.8872    H    1  POPC         0.000000
    146  H91      -35.9581  -45.2517   65.3775    H    1  POPC         0.000000
    147  H        -31.3694  -49.4506   71.0905    H    1  POPC         0.000000
@<TRIPOS>BOND
    1     1    18  1
    2     1     5  1
    3     1     2  1
    4     1     3  1
    5     2     7  1
    6     4    16  1
    7     5    11  1
    8     5     6  1
    9     5    10  1
   10     7   141  1
   11     7     8  1
   12     7     9  1
   13     8    12  1
   14     8    13  1
   15     8    14  1
   16    11    21  1
   17    13    15  1
   18    14    16  1
   19    14    17  1
   20    14    18  1
   21    18    19  1
   22    18    20  1
   23    20   143  1
   24    22   140  1
   25    22    26  1
   26    22    23  1
   27    22    24  1
   28    23    28  1
   29    25   138  1
   30    26   133  1
   31    26    27  1
   32    26   132  1
   33    27   147  1
   34    28    29  1
   35    28    30  1
   36    28    34  1
   37    29   134  1
   38    29   135  1
   39    29   136  1
   40    31    35  1
   41    31    34  1
   42    31    32  1
   43    31    33  1
   44    35    36  1
   45    36    38  1
   46    36    37  1
   47    36    39  1
   48    39    41  1
   49    39    40  1
   50    39    47  1
   51    41    42  1
   52    41   144  1
   53    42    44  1
   54    42    43  1
   55    44    45  1
   56    44    46  1
   57    44    56  1
   58    47    48  1
   59    47    49  1
   60    47    50  1
   61    48   145  1
   62    50    51  2
   63    50   146  1
   64    51    53  1
   65    51    52  1
   66    53    97  1
   67    53    55  1
   68    53    54  1
   69    56    59  1
   70    56    58  1
   71    56    57  1
   72    59    61  1
   73    59    60  1
   74    59    62  1
   75    62    63  1
   76    62    64  1
   77    62    65  1
   78    65    67  1
   79    65    66  1
   80    65    68  1
   81    68    71  1
   82    68    69  1
   83    68    70  1
   84    71    73  1
   85    71    72  1
   86    71    74  1
   87    74    76  2
   88    74    75  1
   89    76    77  1
   90    76    78  1
   91    78    81  1
   92    78    79  1
   93    78    80  1
   94    81    84  1
   95    81    83  1
   96    81    82  1
   97    84    87  1
   98    84    86  1
   99    84    85  1
  100    87    90  1
  101    87    89  1
  102    87    88  1
  103    90    93  1
  104    90    92  1
  105    90    91  1
  106    93    95  1
  107    93    94  1
  108    93    96 -1
  109    97    99  1
  110    97   100  1
  111    97    98  1
  112   100   103  1
  113   100   102  1
  114   100   101  1
  115   103   104  1
  116   103   105  1
  117   103   106  1
  118   106   108  1
  119   106   109  1
  120   106   107  1
  121   109   111  2
  122   109   110  1
  123   111   112  1
  124   111   113  1
  125   113   116  1
  126   113   114  1
  127   113   115  1
  128   116   118  1
  129   116   117  1
  130   116   119  1
  131   119   122  1
  132   119   120  1
  133   119   121  1
  134   122   124  1
  135   122   123  1
  136   122   125  1
  137   125   128  1
  138   125   126  1
  139   125   127  1
  140   128   129  1
  141   128   130  1
  142   128   131  1
  143   135   137  1
  144   136   138  1
  145   136   139  1
  146   136   140  1
  147   140   141  1
  148   140   142  1

@<TRIPOS>SUBSTRUCTURE
1 ****        1 TEMP                        0 ****  **** 0 ROOT
