@<TRIPOS>MOLECULE
generated by VMD
  166  165    1    0    0
SMALL
NO_CHARGES
****
Energy = 0

@<TRIPOS>ATOM
      1  N        -31.4934  -46.5566   64.6437    N    1  POPC         0.000000
      2  C11      -30.7726  -45.7488   65.7474  C11    1  POPC         0.000000
      3  H        -31.6170  -45.8238   63.4027    H    1  POPC         0.000000
      4  H        -29.6739  -46.6308   64.0815    H    1  POPC         0.000000
      5  C14      -30.8528  -47.8417   64.3556  C14    1  POPC         0.000000
      6  H11      -30.0089  -45.1147   65.1404  H11    1  POPC         0.000000
      7  H12      -30.2504  -46.4207   66.4404  H12    1  POPC         0.000000
      8  N        -29.6674  -47.9608   63.1261    N    1  POPC         0.000000
      9  H        -29.1895  -48.0727   64.6884    H    1  POPC         0.000000
     10  C        -32.1881  -54.7144   65.7289    C    1  POPC         0.000000
     11  C        -30.5110  -48.3834   62.7950    C    1  POPC         0.000000
     12  O        -31.3922  -47.9211   62.6968    O    1  POPC         0.000000
     13  H        -29.4115  -47.2031   62.5258    H    1  POPC         0.000000
     14  C        -29.8164  -47.6203   64.0543    C    1  POPC         0.000000
     15  O        -30.7688  -48.3772   65.2790    O    1  POPC         0.000000
     16  C15      -31.6739  -44.6545   66.5186  C15    1  POPC         0.000000
     17  H51      -32.3536  -45.3347   67.1004  H51    1  POPC         0.000000
     18  H52      -30.9981  -43.9889   67.1074  H52    1  POPC         0.000000
     19  P1       -33.7516  -43.3211   66.0526   P1    1  POPC         0.000000
     20  O3       -33.8958  -42.7204   67.3771   O3    1  POPC         0.000000
     21  O4       -34.6278  -44.4592   65.7527   O4    1  POPC         0.000000
     22  O1       -32.2737  -43.7560   65.6628   O1    1  POPC         0.000000
     23  O2       -33.9877  -42.2454   64.8885   O2    1  POPC         0.000000
     24  C1       -33.7410  -42.4845   63.5371   C1    1  POPC         0.000000
     25  HA       -32.6859  -42.2205   63.2874   HA    1  POPC         0.000000
     26  HB       -33.9299  -43.5095   63.2332   HB    1  POPC         0.000000
     27  C2       -34.6062  -41.5824   62.5763   C2    1  POPC         0.000000
     28  HS       -35.6279  -41.7161   62.8688   HS    1  POPC         0.000000
     29  O21      -34.4234  -41.9219   61.1298  O21    1  POPC         0.000000
     30  C21      -35.2520  -41.3529   60.2599  C21    1  POPC         0.000000
     31  O22      -36.2828  -40.7402   60.5636  O22    1  POPC         0.000000
     32  C22      -34.5874  -41.3548   58.8699  C22    1  POPC         0.000000
     33  H2R      -34.0584  -40.4524   58.6599  H2R    1  POPC         0.000000
     34  H2S      -33.9641  -42.2080   58.6847  H2S    1  POPC         0.000000
     35  O31      -32.9049  -39.8431   62.7446  O31    1  POPC         0.000000
     36  C31      -32.5136  -38.6428   62.9855  C31    1  POPC         0.000000
     37  O32      -33.2555  -37.6934   63.1386  O32    1  POPC         0.000000
     38  C32      -30.9569  -38.5949   62.9826  C32    1  POPC         0.000000
     39  H2X      -30.5496  -37.6506   63.4213  H2X    1  POPC         0.000000
     40  H2Y      -30.6090  -39.3989   63.6285  H2Y    1  POPC         0.000000
     41  C23      -35.7183  -41.4830   57.7764  C23    1  POPC         0.000000
     42  H3R      -36.1611  -42.4608   57.8160  H3R    1  POPC         0.000000
     43  H3S      -36.5419  -40.7601   57.8407  H3S    1  POPC         0.000000
     44  C24      -35.0772  -41.6210   56.3630  C24    1  POPC         0.000000
     45  H4R      -34.4841  -40.7231   56.2866  H4R    1  POPC         0.000000
     46  H4S      -34.3261  -42.4263   56.3653  H4S    1  POPC         0.000000
     47  C25      -35.9032  -41.7940   55.1065  C25    1  POPC         0.000000
     48  H5R      -36.5256  -42.7041   55.2234  H5R    1  POPC         0.000000
     49  H5S      -36.6601  -40.9321   55.0250  H5S    1  POPC         0.000000
     50  C26      -35.1366  -41.8887   53.7918  C26    1  POPC         0.000000
     51  H6R      -34.6486  -40.9172   53.6345  H6R    1  POPC         0.000000
     52  H6S      -34.3628  -42.7316   53.8781  H6S    1  POPC         0.000000
     53  C27      -35.9755  -42.1390   52.5279  C27    1  POPC         0.000000
     54  H7R      -36.3189  -43.2154   52.5294  H7R    1  POPC         0.000000
     55  H7S      -36.9565  -41.5073   52.5285  H7S    1  POPC         0.000000
     56  C28      -35.2797  -41.6618   51.2342  C28    1  POPC         0.000000
     57  H8R      -35.2960  -40.5034   51.3868  H8R    1  POPC         0.000000
     58  H8S      -34.2069  -42.0354   51.0845  H8S    1  POPC         0.000000
     59  C29      -36.1321  -42.0727   49.9934  C29    1  POPC         0.000000
     60  H91      -37.1016  -41.5374   49.8370  H91    1  POPC         0.000000
     61 C210      -35.7816  -42.9066   48.9318 C210    1  POPC         0.000000
     62 H101      -36.5843  -42.9904   48.2318 H101    1  POPC         0.000000
     63 C211      -34.5097  -43.6981   48.6831 C211    1  POPC         0.000000
     64 H11R      -33.6600  -43.4511   49.4329 H11R    1  POPC         0.000000
     65 H11S      -34.7327  -44.6867   48.9430 H11S    1  POPC         0.000000
     66 C212      -33.9006  -43.4772   47.3521 C212    1  POPC         0.000000
     67 H12R      -33.5822  -42.4261   47.2363 H12R    1  POPC         0.000000
     68 H12S      -33.0394  -44.1192   47.1982 H12S    1  POPC         0.000000
     69 C213      -34.7517  -43.7439   46.1307 C213    1  POPC         0.000000
     70 H13R      -35.0304  -44.8107   46.1078 H13R    1  POPC         0.000000
     71 H13S      -35.6832  -43.0972   46.0873 H13S    1  POPC         0.000000
     72 C214      -33.9894  -43.3526   44.8787 C214    1  POPC         0.000000
     73 H14R      -33.8517  -42.3006   44.9414 H14R    1  POPC         0.000000
     74 H14S      -33.0623  -43.8821   44.8865 H14S    1  POPC         0.000000
     75 C215      -34.6537  -43.7417   43.5554 C215    1  POPC         0.000000
     76 H15R      -34.7912  -44.8483   43.4799 H15R    1  POPC         0.000000
     77 H15S      -35.6113  -43.2354   43.7030 H15S    1  POPC         0.000000
     78 C216      -33.9170  -43.2253   42.2698 C216    1  POPC         0.000000
     79 H16R      -34.1816  -42.1721   42.0879 H16R    1  POPC         0.000000
     80 H16S      -32.8208  -43.3078   42.3670 H16S    1  POPC         0.000000
     81 C217      -34.2997  -43.9651   40.9776 C217    1  POPC         0.000000
     82 H17R      -34.3905  -45.1089   41.1591 H17R    1  POPC         0.000000
     83 H17S      -35.3174  -43.5342   40.6414 H17S    1  POPC         0.000000
     84 C218      -33.2857  -43.8266   39.8808 C218    1  POPC         0.000000
     85 H18R      -33.5955  -44.5414   39.0853 H18R    1  POPC         0.000000
     86 H18S      -33.2668  -42.8116   39.5269 H18S    1  POPC         0.000000
     87 H18T      -32.3448  -44.1789   40.3232 H18T    1  POPC         0.000000
     88  C33      -30.3276  -38.8216   61.5720  C33    1  POPC         0.000000
     89  H3X      -30.5518  -37.8859   61.0028  H3X    1  POPC         0.000000
     90  H3Y      -29.2029  -38.7600   61.6385  H3Y    1  POPC         0.000000
     91  C34      -30.7462  -40.0560   60.7499  C34    1  POPC         0.000000
     92  H4X      -30.6061  -41.0015   61.3469  H4X    1  POPC         0.000000
     93  H4Y      -31.8482  -39.9696   60.4393  H4Y    1  POPC         0.000000
     94  C35      -30.0298  -40.0436   59.3828  C35    1  POPC         0.000000
     95  H5X      -30.0149  -39.0589   58.9251  H5X    1  POPC         0.000000
     96  H5Y      -28.9368  -40.2621   59.5120  H5Y    1  POPC         0.000000
     97  C36      -30.6119  -41.0090   58.3346  C36    1  POPC         0.000000
     98  H6X      -30.4270  -42.0666   58.7294  H6X    1  POPC         0.000000
     99  H6Y      -31.7408  -40.8893   58.2481  H6Y    1  POPC         0.000000
    100  C37      -30.1181  -40.9192   56.9403  C37    1  POPC         0.000000
    101  H7X      -30.2693  -39.8566   56.5904  H7X    1  POPC         0.000000
    102  H7Y      -29.0493  -41.0776   56.8142  H7Y    1  POPC         0.000000
    103  C38      -30.7854  -41.6946   55.8087  C38    1  POPC         0.000000
    104  H8X      -30.7607  -42.7289   56.1827  H8X    1  POPC         0.000000
    105  H8Y      -31.8258  -41.2969   55.9247  H8Y    1  POPC         0.000000
    106  C39      -30.0747  -41.4920   54.3848  C39    1  POPC         0.000000
    107  H9X      -30.1129  -40.3807   54.1043  H9X    1  POPC         0.000000
    108  H9Y      -29.0270  -41.9456   54.4942  H9Y    1  POPC         0.000000
    109 C310      -30.7179  -42.1065   53.1542 C310    1  POPC         0.000000
    110 H10X      -30.8504  -43.1903   53.3266 H10X    1  POPC         0.000000
    111 H10Y      -31.5681  -41.5729   52.9565 H10Y    1  POPC         0.000000
    112 C311      -29.7998  -41.8832   51.9495 C311    1  POPC         0.000000
    113 H11X      -29.4409  -40.7867   51.8745 H11X    1  POPC         0.000000
    114 H11Y      -28.9368  -42.5244   52.0486 H11Y    1  POPC         0.000000
    115 C312      -30.5929  -42.0681   50.5422 C312    1  POPC         0.000000
    116 H12X      -31.0730  -43.0559   50.5736 H12X    1  POPC         0.000000
    117 H12Y      -31.4445  -41.3536   50.5494 H12Y    1  POPC         0.000000
    118 C313      -29.6078  -41.8562   49.3422 C313    1  POPC         0.000000
    119 H13X      -29.4863  -40.7440   49.3655 H13X    1  POPC         0.000000
    120 H13Y      -28.6421  -42.3247   49.6811 H13Y    1  POPC         0.000000
    121 C314      -30.1315  -42.3789   48.0140 C314    1  POPC         0.000000
    122 H14X      -30.1875  -43.5371   47.9799 H14X    1  POPC         0.000000
    123 H14Y      -31.1805  -41.8971   47.9368 H14Y    1  POPC         0.000000
    124 C315      -29.2784  -41.9571   46.8949 C315    1  POPC         0.000000
    125 H15X      -29.3163  -40.8299   46.7979 H15X    1  POPC         0.000000
    126 H15Y      -28.2725  -42.2481   47.1278 H15Y    1  POPC         0.000000
    127 C316      -29.8093  -42.4500   45.5462 C316    1  POPC         0.000000
    128  H        -29.9734  -43.4348   45.4867    H    1  POPC         0.000000
    129 H16Y      -29.0158  -42.2593   44.7509 H16Y    1  POPC         0.000000
    130  H        -30.6128  -41.9646   45.2013    H    1  POPC         0.000000
    131  C        -30.3312  -49.3429   62.5780    C    1  POPC         0.000000
    132  H        -30.5282  -49.5001   61.6103    H    1  POPC         0.000000
    133  N        -30.8500  -49.6528   63.6875    N    1  POPC         0.000000
    134  H        -29.3705  -49.5450   62.7678    H    1  POPC         0.000000
    135  C        -30.3463  -50.5166   63.7064    C    1  POPC         0.000000
    136  H        -31.4825  -49.3372   63.7295    H    1  POPC         0.000000
    137  C        -30.8427  -51.3845   63.7222    C    1  POPC         0.000000
    138  O        -29.3463  -50.5121   63.7095    O    1  POPC         0.000000
    139  H        -31.7262  -51.2462   64.1693    H    1  POPC         0.000000
    140  N        -30.3052  -52.0578   64.2298    N    1  POPC         0.000000
    141  H        -30.9813  -51.6973   62.7826    H    1  POPC         0.000000
    142  C        -30.7171  -52.9609   64.1096    C    1  POPC         0.000000
    143  H        -29.3693  -52.0601   63.8773    H    1  POPC         0.000000
    144  C        -31.6537  -52.9408   64.4592    C    1  POPC         0.000000
    145  H        -31.6329  -52.7119   65.4325    H    1  POPC         0.000000
    146  H        -32.1738  -52.2499   63.9574    H    1  POPC         0.000000
    147  C        -33.0090  -53.8184   64.6699    C    1  POPC         0.000000
    148  N        -33.1067  -54.4930   65.4016    N    1  POPC         0.000000
    149  H        -33.6326  -54.0366   63.9193    H    1  POPC         0.000000
    150  H        -33.6565  -54.2445   66.1989    H    1  POPC         0.000000
    151  C        -31.8995  -56.4254   65.5018    C    1  POPC         0.000000
    152  C        -32.0758  -54.3107   67.4280    C    1  POPC         0.000000
    153  H        -31.3545  -53.6296   67.5537    H    1  POPC         0.000000
    154  C        -31.8578  -55.1380   67.9455    C    1  POPC         0.000000
    155  C        -31.7154  -56.8452   66.3906    C    1  POPC         0.000000
    156  N        -32.7106  -56.8406   65.0900    N    1  POPC         0.000000
    157  H        -32.4137  -57.5584   66.4515    H    1  POPC         0.000000
    158  C        -31.6601  -56.4062   67.5060    C    1  POPC         0.000000
    159  H        -32.6104  -55.2039   68.6006    H    1  POPC         0.000000
    160  H        -30.7244  -53.2016   63.1390    H    1  POPC         0.000000
    161  H        -30.1847  -53.6436   64.6102    H    1  POPC         0.000000
    162  O        -33.0621  -57.5471   65.7043    O    1  POPC         0.000000
    163  O        -33.4038  -56.1333   64.9517    O    1  POPC         0.000000
    164  N        -32.3349  -57.0078   67.9333    N    1  POPC         0.000000
    165  O        -31.8571  -57.7086   68.4631    O    1  POPC         0.000000
    166  O        -32.9201  -56.4650   68.5355    O    1  POPC         0.000000
@<TRIPOS>BOND
    1     1     5  1
    2     1     3  1
    3     1     2  1
    4     2     6  1
    5     2     7  1
    6     2    16  1
    7     4    14  1
    8     5    14  1
    9     5    15  2
   10     8    14  1
   11     8    11  1
   12     8    13  1
   13     9    14  1
   14    10   148  1
   15    10   151  2
   16    10   152  1
   17    11   131  1
   18    11    12  2
   19    16    17  1
   20    16    22  1
   21    16    18  1
   22    19    21  1
   23    19    22  1
   24    19    23  1
   25    19    20  1
   26    23    24  1
   27    24    26  1
   28    24    27  1
   29    24    25  1
   30    27    29  1
   31    27    28  1
   32    27    35  1
   33    29    30  1
   34    30    32  1
   35    30    31  1
   36    32    34  1
   37    32    33  1
   38    32    41  1
   39    35    36  1
   40    36    38  1
   41    36    37  1
   42    38    88  1
   43    38    40  1
   44    38    39  1
   45    41    44  1
   46    41    42  1
   47    41    43  1
   48    44    46  1
   49    44    45  1
   50    44    47  1
   51    47    48  1
   52    47    49  1
   53    47    50  1
   54    50    51  1
   55    50    52  1
   56    50    53  1
   57    53    56  1
   58    53    54  1
   59    53    55  1
   60    56    58  1
   61    56    57  1
   62    56    59  1
   63    59    61  2
   64    59    60  1
   65    61    62  1
   66    61    63  1
   67    63    65  1
   68    63    66  1
   69    63    64  1
   70    66    69  1
   71    66    68  1
   72    66    67  1
   73    69    70  1
   74    69    72  1
   75    69    71  1
   76    72    75  1
   77    72    74  1
   78    72    73  1
   79    75    76  1
   80    75    78  1
   81    75    77  1
   82    78    81  1
   83    78    79  1
   84    78    80  1
   85    81    82  1
   86    81    83  1
   87    81    84  1
   88    84    85  1
   89    84    87  1
   90    84    86  1
   91    88    90  1
   92    88    91  1
   93    88    89  1
   94    91    94  1
   95    91    93  1
   96    91    92  1
   97    94    95  1
   98    94    96  1
   99    94    97  1
  100    97    99  1
  101    97   100  1
  102    97    98  1
  103   100   103  1
  104   100   102  1
  105   100   101  1
  106   103   105  1
  107   103   106  1
  108   103   104  1
  109   106   109  1
  110   106   108  1
  111   106   107  1
  112   109   111  1
  113   109   110  1
  114   109   112  1
  115   112   115  1
  116   112   114  1
  117   112   113  1
  118   115   117  1
  119   115   116  1
  120   115   118  1
  121   118   121  1
  122   118   120  1
  123   118   119  1
  124   121   122  1
  125   121   124  1
  126   121   123  1
  127   124   127  1
  128   124   125  1
  129   124   126  1
  130   127   129  1
  131   127   128  1
  132   127   130  1
  133   131   132  1
  134   131   133  1
  135   131   134  1
  136   133   135  1
  137   133   136  1
  138   135   137  1
  139   135   138  2
  140   137   139  1
  141   137   140  1
  142   137   141  1
  143   140   142  1
  144   140   143  1
  145   142   144  1
  146   142   160  1
  147   142   161  1
  148   144   145  1
  149   144   147  1
  150   144   146  1
  151   147   148  1
  152   147   149  1
  153   148   150  1
  154   151   155  1
  155   151   156  1
  156   152   153  1
  157   152   154  2
  158   154   158  1
  159   154   159  1
  160   155   157  1
  161   155   158  2
  162   156   162  1
  163   156   163  1
  164   158   164  1
  165   164   165  1

@<TRIPOS>SUBSTRUCTURE
1 ****        1 TEMP                        0 ****  **** 0 ROOT
