@<TRIPOS>MOLECULE
generated by VMD
  155  156    1    0    0
SMALL
NO_CHARGES
****
Energy = 0

@<TRIPOS>ATOM
      1  C        -21.2392  -49.6375   69.4758    C    1  POPC         0.000000
      2  O11      -20.9693  -50.0146   67.9999    O    1  POPC         0.000000
      3  H12      -20.1416  -49.9657   70.3585  H12    1  POPC         0.000000
      4  H        -19.3784  -47.5904   68.1949    H    1  POPC         0.000000
      5  C14      -22.4546  -50.2572   70.0060  C14    1  POPC         0.000000
      6  H3       -22.3538  -51.1638   70.4146   H3    1  POPC         0.000000
      7  C15      -21.5250  -48.9761   66.8977  C15    1  POPC         0.000000
      8  C51      -20.9604  -48.0497   67.1991  C51    1  POPC         0.000000
      9  H52      -21.3162  -49.3887   65.8823  H52    1  POPC         0.000000
     10  H74      -23.0170  -49.6904   70.6086  H74    1  POPC         0.000000
     11  O19      -23.0815  -50.4413   69.2495    O    1  POPC         0.000000
     12  H20      -21.5087  -47.2460   66.9706  H20    1  POPC         0.000000
     13  O23      -20.0915  -48.0229   66.7041  O23    1  POPC         0.000000
     14  C42      -20.7719  -48.4397   68.3565  C42    1  POPC         0.000000
     15  H25      -20.0284  -48.8297   66.1138  H25    1  POPC         0.000000
     16  O26      -20.2834  -47.2585   68.4614  O26    1  POPC         0.000000
     17  H27      -20.2483  -48.8906   68.3913  H27    1  POPC         0.000000
     18  C43      -20.9317  -48.6874   69.3628  C43    1  POPC         0.000000
     19  H29      -19.8236  -48.8736   70.8344  H29    1  POPC         0.000000
     20  O30      -21.3841  -47.7787   69.0037  O30    1  POPC         0.000000
     21  H80      -22.6588  -50.1393   68.3952  H80    1  POPC         0.000000
     22  C7       -23.9023  -49.6324   66.1300    C    1  POPC         0.000000
     23  C11      -23.7261  -50.0142   64.6418  C11    1  POPC         0.000000
     24  H11      -22.8078  -49.9555   67.0084  H12    1  POPC         0.000000
     25  H12      -22.0447  -47.5793   64.8474    H    1  POPC         0.000000
     26 C102      -25.1169  -50.2465   66.6667    C    1  POPC         0.000000
     27 O104      -25.0060  -51.1523   67.0742    O    1  POPC         0.000000
     28  C9       -24.1894  -48.9697   63.5442  C15    1  POPC         0.000000
     29  C10      -23.6269  -48.0381   63.8519  C51    1  POPC         0.000000
     30  H14      -23.9839  -49.3666   62.5296  H52    1  POPC         0.000000
     31  P1       -26.3381  -49.8272   64.5448   P1    1  POPC         0.000000
     32  O3       -25.9769  -49.6608   65.9512   O3    1  POPC         0.000000
     33  O4       -26.2629  -51.1833   63.9900   O4    1  POPC         0.000000
     34  O1       -25.5672  -48.8703   63.5387   O1    1  POPC         0.000000
     35  O2       -27.8273  -49.3120   64.2528   O2    1  POPC         0.000000
     36  C1       -28.3695  -49.1770   62.9743   C1    1  POPC         0.000000
     37  HA       -28.1538  -48.1564   62.5765   HA    1  POPC         0.000000
     38  HB       -28.0115  -49.9145   62.2627   HB    1  POPC         0.000000
     39  C2       -29.9424  -49.2834   62.9508   C2    1  POPC         0.000000
     40  HS       -30.1935  -50.2017   63.4402   HS    1  POPC         0.000000
     41  N21      -30.5096  -49.2486   61.5666    N    1  POPC         0.000000
     42  C21      -31.8032  -49.5273   61.4316  C21    1  POPC         0.000000
     43  O22      -32.5175  -50.0135   62.3176  O22    1  POPC         0.000000
     44  C22      -32.3082  -48.9087   60.1135  C22    1  POPC         0.000000
     45  H2R      -32.7286  -47.9366   60.2437  H2R    1  POPC         0.000000
     46  H2S      -31.5773  -48.8995   59.3288  H2S    1  POPC         0.000000
     47  C3       -30.6407  -48.1500   63.7978   C3    1  POPC         0.000000
     48  O        -31.7229  -48.2016   63.6317    O    1  POPC         0.000000
     49  HY       -30.4032  -48.3893   64.8361   HY    1  POPC         0.000000
     50  C31      -30.0697  -46.8982   63.4403    C    1  POPC         0.000000
     51  C17      -30.4745  -45.8900   64.1252  C31    1  POPC         0.000000
     52  H32      -31.3449  -45.9366   64.9725    H    1  POPC         0.000000
     53  C32      -29.7273  -44.6083   63.6524  C32    1  POPC         0.000000
     54  H2X      -29.8453  -43.7498   64.3595  H2X    1  POPC         0.000000
     55  H2Y      -28.6629  -44.8420   63.6419  H2Y    1  POPC         0.000000
     56  C23      -33.4539  -49.8287   59.5381  C23    1  POPC         0.000000
     57  H3R      -33.0442  -50.7655   59.2077  H3R    1  POPC         0.000000
     58  H3S      -34.2751  -50.0688   60.2232  H3S    1  POPC         0.000000
     59  C24      -33.8986  -49.3086   58.1377  C24    1  POPC         0.000000
     60  H4R      -34.2041  -48.2960   58.3501  H4R    1  POPC         0.000000
     61  H4S      -33.0216  -49.1818   57.4863  H4S    1  POPC         0.000000
     62  C25      -34.9633  -49.9996   57.3122  C25    1  POPC         0.000000
     63  H5R      -34.6401  -51.0454   57.1360  H5R    1  POPC         0.000000
     64  H5S      -35.9265  -50.0940   57.9341  H5S    1  POPC         0.000000
     65  C26      -35.3133  -49.3591   55.9752  C26    1  POPC         0.000000
     66  H6R      -35.7664  -48.3821   56.1935  H6R    1  POPC         0.000000
     67  H6S      -34.3505  -49.2392   55.3621  H6S    1  POPC         0.000000
     68  C27      -36.3401  -50.1048   55.1077  C27    1  POPC         0.000000
     69  H7R      -35.8439  -51.0176   54.6635  H7R    1  POPC         0.000000
     70  H7S      -37.2244  -50.5211   55.7473  H7S    1  POPC         0.000000
     71  C28      -37.0680  -49.1847   54.1027  C28    1  POPC         0.000000
     72  H8R      -37.7034  -48.5226   54.8265  H8R    1  POPC         0.000000
     73  H8S      -36.3878  -48.5336   53.4492  H8S    1  POPC         0.000000
     74  C29      -37.9883  -50.0372   53.1759  C29    1  POPC         0.000000
     75  H91      -38.7642  -50.4819   54.1172  H91    1  POPC         0.000000
     76 C210      -37.9349  -50.1840   51.7900 C210    1  POPC         0.000000
     77 H101      -38.7073  -50.8362   51.4448 H101    1  POPC         0.000000
     78 C211      -36.9559  -49.6145   50.7772 C211    1  POPC         0.000000
     79 H11R      -36.2310  -48.8300   51.2303 H11R    1  POPC         0.000000
     80 H11S      -36.2972  -50.3941   50.5462 H11S    1  POPC         0.000000
     81 C212      -37.5903  -48.9124   49.6403 C212    1  POPC         0.000000
     82 H12R      -38.1531  -48.0283   49.9872 H12R    1  POPC         0.000000
     83 H12S      -36.8534  -48.5901   48.9112 H12S    1  POPC         0.000000
     84 C213      -38.5885  -49.6823   48.8020 C213    1  POPC         0.000000
     85 H13R      -38.0796  -50.5346   48.3227 H13R    1  POPC         0.000000
     86 H13S      -39.4838  -50.0450   49.3976 H13S    1  POPC         0.000000
     87 C214      -39.2049  -48.7606   47.7647 C214    1  POPC         0.000000
     88 H14R      -39.7509  -48.0324   48.3132 H14R    1  POPC         0.000000
     89 H14S      -38.4056  -48.3279   47.2022 H14S    1  POPC         0.000000
     90 C215      -40.0937  -49.4449   46.7226 C215    1  POPC         0.000000
     91 H15R      -39.5205  -50.2035   46.1371 H15R    1  POPC         0.000000
     92 H15S      -40.7984  -49.9255   47.4064 H15S    1  POPC         0.000000
     93 C216      -40.8185  -48.4692   45.7312 C216    1  POPC         0.000000
     94 H16R      -41.7140  -48.0490   46.2137 H16R    1  POPC         0.000000
     95 H16S      -40.1598  -47.6420   45.4165 H16S    1  POPC         0.000000
     96 C217      -41.3306  -49.1353   44.4442 C217    1  POPC         0.000000
     97 H17R      -40.5583  -49.8956   44.0281 H17R    1  POPC         0.000000
     98 H17S      -42.3109  -49.6789   44.7231 H17S    1  POPC         0.000000
     99 C218      -41.5697  -48.1721   43.3190 C218    1  POPC         0.000000
    100 C18R      -41.3100  -48.7203   42.3856    C    1  POPC         0.000000
    101 H18S      -42.5953  -47.8513   43.3261 H18S    1  POPC         0.000000
    102 H18T      -40.8339  -47.3723   43.4741 H18T    1  POPC         0.000000
    103  C33      -30.1192  -44.1503   62.2128  C33    1  POPC         0.000000
    104  H3X      -31.1552  -43.7438   62.3141  H3X    1  POPC         0.000000
    105  H3Y      -29.5548  -43.2129   61.9405  H3Y    1  POPC         0.000000
    106  C34      -30.0573  -45.1648   61.0558  C34    1  POPC         0.000000
    107  H4X      -29.0395  -45.6458   60.9987  H4X    1  POPC         0.000000
    108  H4Y      -30.8510  -45.9823   61.2046  H4Y    1  POPC         0.000000
    109  C35      -30.5312  -44.4980   59.7473  C35    1  POPC         0.000000
    110  H5X      -31.4111  -43.8770   59.8854  H5X    1  POPC         0.000000
    111  H5Y      -29.7721  -43.7552   59.3887  H5Y    1  POPC         0.000000
    112  C36      -30.8562  -45.4720   58.6013  C36    1  POPC         0.000000
    113  H6X      -29.8686  -45.9716   58.3094  H6X    1  POPC         0.000000
    114  H6Y      -31.5468  -46.3062   58.9536  H6Y    1  POPC         0.000000
    115  C37      -31.5074  -44.9367   57.3804  C37    1  POPC         0.000000
    116  H7X      -32.4531  -44.4112   57.6992  H7X    1  POPC         0.000000
    117  H7Y      -30.9486  -44.1622   56.8590  H7Y    1  POPC         0.000000
    118  C38      -32.0417  -45.8641   56.2930  C38    1  POPC         0.000000
    119  H8X      -31.1611  -46.4760   56.0484  H8X    1  POPC         0.000000
    120  H8Y      -32.7368  -46.4739   56.9215  H8Y    1  POPC         0.000000
    121  C39      -32.6717  -45.0863   55.0396  C39    1  POPC         0.000000
    122  H9X      -33.5492  -44.4456   55.4029  H9X    1  POPC         0.000000
    123  H9Y      -31.7994  -44.5166   54.5597  H9Y    1  POPC         0.000000
    124 C310      -33.3529  -45.8921   53.9489 C310    1  POPC         0.000000
    125 H10X      -32.6407  -46.6484   53.5691 H10X    1  POPC         0.000000
    126 H10Y      -34.2276  -46.2509   54.3371 H10Y    1  POPC         0.000000
    127 C311      -33.7606  -44.9473   52.8138 C311    1  POPC         0.000000
    128 H11X      -34.3069  -44.0070   53.2068 H11X    1  POPC         0.000000
    129 H11Y      -32.8701  -44.6373   52.2865 H11Y    1  POPC         0.000000
    130 C312      -34.8918  -45.6102   51.8514 C312    1  POPC         0.000000
    131 H12X      -34.4989  -46.5806   51.5195 H12X    1  POPC         0.000000
    132 H12Y      -35.7569  -45.8744   52.4988 H12Y    1  POPC         0.000000
    133  H        -35.3177  -45.2409   51.0253    H    1  POPC         0.000000
    134  H        -40.5709  -48.2354   41.9181    H    1  POPC         0.000000
    135  C        -42.1172  -48.7610   41.7967   C1    1  POPC         0.000000
    136  H        -41.0141  -49.6456   42.6230    H    1  POPC         0.000000
    137  H        -42.3536  -49.7189   41.6340    H    1  POPC         0.000000
    138  H        -41.9103  -48.3087   40.9291    H    1  POPC         0.000000
    139  H        -42.8760  -48.2950   42.2517    H    1  POPC         0.000000
    140  H84      -25.6799  -49.6847   67.2730  H74    1  POPC         0.000000
    141  H19      -25.7475  -50.4336   65.9124  H19    1  POPC         0.000000
    142  H86      -24.1751  -47.2353   63.6149  H20    1  POPC         0.000000
    143  O15      -22.7588  -48.0109   63.3552  O23    1  POPC         0.000000
    144  C48      -23.4398  -48.4282   65.0069  C42    1  POPC         0.000000
    145  H87      -22.6943  -48.8188   62.7676  H25    1  POPC         0.000000
    146  O16      -22.9500  -47.2462   65.1112  O26    1  POPC         0.000000
    147  H88      -22.9163  -48.8787   65.0455  H27    1  POPC         0.000000
    148  C49      -23.5418  -48.6906   66.0545  C43    1  POPC         0.000000
    149  O13      -24.2978  -48.0759   66.4045    O    1  POPC         0.000000
    150  H87      -22.9117  -48.5839   65.9469    H    1  POPC         0.000000
    151  H92      -20.6697  -47.1821   68.6379    H    1  POPC         0.000000
    152  H93      -30.0041  -48.7692   59.4259    H    1  POPC         0.000000
    153  H90      -31.9198  -48.9496   62.9980    H    1  POPC         0.000000
    154  H91      -29.3962  -46.7303   62.7203    H    1  POPC         0.000000
    155  H        -24.8950  -52.0585   67.4821    H    1  POPC         0.000000
@<TRIPOS>BOND
    1     1    18  1
    2     1     5  1
    3     1     2  1
    4     1     3  1
    5     2     7  1
    6     4    16  1
    7     5    11  1
    8     5     6  1
    9     5    10  1
   10     7   149  1
   11     7     8  1
   12     7     9  1
   13     8    12  1
   14     8    13  1
   15     8    14  1
   16    11    21  1
   17    13    15  1
   18    14    16  1
   19    14    17  1
   20    14    18  1
   21    18    19  1
   22    18    20  1
   23    20   151  1
   24    22   148  1
   25    22    26  1
   26    22    23  1
   27    22    24  1
   28    23    28  1
   29    25   146  1
   30    26   141  1
   31    26    27  1
   32    26   140  1
   33    27   155  1
   34    28    29  1
   35    28    30  1
   36    28    34  1
   37    29   142  1
   38    29   143  1
   39    29   144  1
   40    31    35  1
   41    31    34  1
   42    31    32  1
   43    31    33  1
   44    35    36  1
   45    36    38  1
   46    36    37  1
   47    36    39  1
   48    39    41  1
   49    39    40  1
   50    39    47  1
   51    41    42  1
   52    41   152  1
   53    42    44  1
   54    42    43  1
   55    44    45  1
   56    44    46  1
   57    44    56  1
   58    47    48  1
   59    47    49  1
   60    47    50  1
   61    48   153  1
   62    50    51  2
   63    50   154  1
   64    51    53  1
   65    51    52  1
   66    53   103  1
   67    53    55  1
   68    53    54  1
   69    56    59  1
   70    56    58  1
   71    56    57  1
   72    59    61  1
   73    59    60  1
   74    59    62  1
   75    62    63  1
   76    62    64  1
   77    62    65  1
   78    65    67  1
   79    65    66  1
   80    65    68  1
   81    68    71  1
   82    68    69  1
   83    68    70  1
   84    71    73  1
   85    71    72  1
   86    71    74  1
   87    74    76  2
   88    74    75  1
   89    76    77  1
   90    76    78  1
   91    78    81  1
   92    78    79  1
   93    78    80  1
   94    81    84  1
   95    81    83  1
   96    81    82  1
   97    84    87  1
   98    84    86  1
   99    84    85  1
  100    87    90  1
  101    87    89  1
  102    87    88  1
  103    90    93  1
  104    90    92  1
  105    90    91  1
  106    93    96  1
  107    93    95  1
  108    93    94  1
  109    96    98  1
  110    96    99  1
  111    96    97  1
  112    99   100  1
  113    99   101  1
  114    99   102  1
  115   100   134 -1
  116   100   135 -1
  117   100   136 -1
  118   103   105  1
  119   103   106  1
  120   103   104  1
  121   106   109  1
  122   106   108  1
  123   106   107  1
  124   109   110  1
  125   109   111  1
  126   109   112  1
  127   112   114  1
  128   112   115  1
  129   112   113  1
  130   115   118  1
  131   115   117  1
  132   115   116  1
  133   118   120  1
  134   118   119  1
  135   118   121  1
  136   121   124  1
  137   121   122  1
  138   121   123  1
  139   124   126  1
  140   124   125  1
  141   124   127  1
  142   127   130  1
  143   127   128  1
  144   127   129  1
  145   130   132  1
  146   130   131  1
  147   130   133 -1
  148   135   137 -1
  149   135   138 -1
  150   135   139 -1
  151   143   145  1
  152   144   146  1
  153   144   147  1
  154   144   148  1
  155   148   149  1
  156   148   150  1

@<TRIPOS>SUBSTRUCTURE
1 ****        1 TEMP                        0 ****  **** 0 ROOT
