@<TRIPOS>MOLECULE
generated by VMD
  156  156    1    0    0
SMALL
NO_CHARGES
****
Energy = 0

@<TRIPOS>ATOM
      1  C        -29.3375  -46.2664   74.0821    C    1  POPC         0.000000
      2  O11      -28.5885  -46.3770   72.7330    O    1  POPC         0.000000
      3  H12      -28.4604  -46.3404   75.2296  H12    1  POPC         0.000000
      4  H        -27.9751  -43.6207   73.4203    H    1  POPC         0.000000
      5  C14      -30.3804  -47.2818   74.2365  C14    1  POPC         0.000000
      6  H3       -30.1008  -48.1540   74.6364   H3    1  POPC         0.000000
      7  C15      -29.1456  -45.4416   71.5427  C15    1  POPC         0.000000
      8  C51      -29.0092  -44.4266   72.0108  C51    1  POPC         0.000000
      9  H52      -28.5596  -45.6556   70.6176  H52    1  POPC         0.000000
     10  H74      -31.2313  -46.9839   74.6696  H74    1  POPC         0.000000
     11  O19      -30.6959  -47.5630   73.3305    O    1  POPC         0.000000
     12  H20      -29.7093  -43.8082   71.6558  H20    1  POPC         0.000000
     13  O23      -28.0991  -44.0816   71.7800  O23    1  POPC         0.000000
     14  C42      -29.0105  -44.8667   73.1657  C42    1  POPC         0.000000
     15  H25      -27.6281  -44.7600   71.2132  H25    1  POPC         0.000000
     16  O26      -28.9751  -43.6121   73.4297  O26    1  POPC         0.000000
     17  H27      -28.3970  -45.1375   73.3358  H27    1  POPC         0.000000
     18  C43      -29.3359  -45.2614   74.0811  C43    1  POPC         0.000000
     19  H29      -28.6472  -45.2632   75.7998  H29    1  POPC         0.000000
     20  O30      -29.9488  -44.4998   73.6299  O30    1  POPC         0.000000
     21  H80      -30.1882  -47.0536   72.6359  H80    1  POPC         0.000000
     22  C7       -30.8988  -46.7016   70.1248    C    1  POPC         0.000000
     23  C11      -30.2303  -46.8438   68.7376  C11    1  POPC         0.000000
     24  H11      -30.0250  -46.7713   71.2675  H12    1  POPC         0.000000
     25  H12      -29.5408  -44.0509   69.4602    H    1  POPC         0.000000
     26 C102      -31.9443  -47.7122   70.2856    C    1  POPC         0.000000
     27 O104      -31.6556  -48.5805   70.6877    O    1  POPC         0.000000
     28  C9       -30.7064  -45.8751   67.5777  C15    1  POPC         0.000000
     29  C10      -30.5753  -44.8566   68.0516  C51    1  POPC         0.000000
     30  H14      -30.1288  -46.0753   66.6528  H52    1  POPC         0.000000
     31  P1       -32.6434  -47.4521   67.9165   P1    1  POPC         0.000000
     32  O3       -32.7318  -47.3408   69.3712   O3    1  POPC         0.000000
     33  O4       -31.9928  -48.6504   67.3748   O4    1  POPC         0.000000
     34  O1       -31.9913  -46.2004   67.1885   O1    1  POPC         0.000000
     35  O2       -34.0901  -47.3861   67.2303   O2    1  POPC         0.000000
     36  C1       -34.2970  -47.2817   65.8544   C1    1  POPC         0.000000
     37  HA       -34.3281  -46.2064   65.5559   HA    1  POPC         0.000000
     38  HB       -33.5487  -47.7912   65.2554   HB    1  POPC         0.000000
     39  C2       -35.6882  -47.8590   65.3885   C2    1  POPC         0.000000
     40  HS       -35.7461  -48.8585   65.7672   HS    1  POPC         0.000000
     41  N21      -35.8581  -47.8452   63.9020    N    1  POPC         0.000000
     42  C21      -36.9106  -48.4881   63.4035  C21    1  POPC         0.000000
     43  O22      -37.6324  -49.2640   64.0427  O22    1  POPC         0.000000
     44  C22      -37.2298  -47.9104   62.0108  C22    1  POPC         0.000000
     45  H2R      -37.9607  -47.1334   62.0396  H2R    1  POPC         0.000000
     46  H2S      -36.3647  -47.5919   61.4630  H2S    1  POPC         0.000000
     47  C3       -36.9094  -47.0937   66.0309   C3    1  POPC         0.000000
     48  O        -37.8349  -47.4538   65.5670    O    1  POPC         0.000000
     49  HY       -36.8841  -47.3630   67.0885   HY    1  POPC         0.000000
     50  C31      -36.7023  -45.6959   65.8759    C    1  POPC         0.000000
     51  C17      -37.5739  -44.9415   66.4421  C31    1  POPC         0.000000
     52  H32      -38.5700  -45.3449   67.0101    H    1  POPC         0.000000
     53  C32      -37.1863  -43.4490   66.2266  C32    1  POPC         0.000000
     54  H2X      -37.7542  -42.7513   66.8911  H2X    1  POPC         0.000000
     55  H2Y      -36.1391  -43.3445   66.5096  H2Y    1  POPC         0.000000
     56  C23      -37.8264  -49.0659   61.1170  C23    1  POPC         0.000000
     57  H3R      -37.0650  -49.7905   60.8938  H3R    1  POPC         0.000000
     58  H3S      -38.6732  -49.6193   61.5388  H3S    1  POPC         0.000000
     59  C24      -38.0376  -48.5539   59.6601  C24    1  POPC         0.000000
     60  H4R      -38.6981  -47.7128   59.8009  H4R    1  POPC         0.000000
     61  H4S      -37.1120  -48.0944   59.2836  H4S    1  POPC         0.000000
     62  C25      -38.5698  -49.4404   58.5540  C25    1  POPC         0.000000
     63  H5R      -37.8918  -50.3116   58.4520  H5R    1  POPC         0.000000
     64  H5S      -39.5768  -49.8923   58.8786  H5S    1  POPC         0.000000
     65  C26      -38.7502  -48.7927   57.1870  C26    1  POPC         0.000000
     66  H6R      -39.5352  -48.0308   57.2914  H6R    1  POPC         0.000000
     67  H6S      -37.7542  -48.3178   56.8713  H6S    1  POPC         0.000000
     68  C27      -39.2194  -49.7146   56.0501  C27    1  POPC         0.000000
     69  H7R      -38.3577  -50.3776   55.7425  H7R    1  POPC         0.000000
     70  H7S      -40.0549  -50.4490   56.4067  H7S    1  POPC         0.000000
     71  C28      -39.9200  -48.9545   54.9021  C28    1  POPC         0.000000
     72  H8R      -40.8996  -48.6022   55.4334  H8R    1  POPC         0.000000
     73  H8S      -39.3426  -48.0588   54.4802  H8S    1  POPC         0.000000
     74  C29      -40.2424  -49.9384   53.7357  C29    1  POPC         0.000000
     75  H91      -41.0481  -50.7001   54.4116  H91    1  POPC         0.000000
     76 C210      -39.7882  -49.9072   52.4174 C210    1  POPC         0.000000
     77 H101      -40.1911  -50.7212   51.8550 H101    1  POPC         0.000000
     78 C211      -38.8196  -48.9577   51.7327 C211    1  POPC         0.000000
     79 H11R      -38.5307  -48.0450   52.3883 H11R    1  POPC         0.000000
     80 H11S      -37.9082  -49.4688   51.6783 H11S    1  POPC         0.000000
     81 C212      -39.3305  -48.3607   50.4795 C212    1  POPC         0.000000
     82 H12R      -40.2185  -47.7343   50.6743 H12R    1  POPC         0.000000
     83 H12S      -38.5757  -47.7503   49.9936 H12S    1  POPC         0.000000
     84 C213      -39.7734  -49.3000   49.3780 C213    1  POPC         0.000000
     85 H13R      -38.9107  -49.8979   49.0417 H13R    1  POPC         0.000000
     86 H13S      -40.6249  -49.9821   49.6905 H13S    1  POPC         0.000000
     87 C214      -40.3647  -48.5008   48.2303 C214    1  POPC         0.000000
     88 H14R      -41.2390  -48.0392   48.6199 H14R    1  POPC         0.000000
     89 H14S      -39.6318  -47.7855   47.9243 H14S    1  POPC         0.000000
     90 C215      -40.6831  -49.3033   46.9659 C215    1  POPC         0.000000
     91 H15R      -39.7646  -49.7812   46.5478 H15R    1  POPC         0.000000
     92 H15S      -41.3457  -50.0485   47.4138 H15S    1  POPC         0.000000
     93 C216      -41.4023  -48.4910   45.8331 C216    1  POPC         0.000000
     94 H16R      -42.4781  -48.4200   46.0544 H16R    1  POPC         0.000000
     95 H16S      -40.9891  -47.4729   45.7342 H16S    1  POPC         0.000000
     96 C217      -41.3204  -49.1343   44.4396 C217    1  POPC         0.000000
     97 H17R      -40.2639  -49.5720   44.2398 H17R    1  POPC         0.000000
     98 H17S      -42.1089  -49.9782   44.4203 H17S    1  POPC         0.000000
     99 C218      -41.5589  -48.1711   43.3143 C218    1  POPC         0.000000
    100 H18R      -41.2989  -48.7193   42.3810 H18R    1  POPC         0.000000
    101 H18S      -42.5845  -47.8502   43.3210 H18S    1  POPC         0.000000
    102 H18T      -40.8231  -47.3713   43.4697 H18T    1  POPC         0.000000
    103  C33      -37.3192  -42.9753   64.7453  C33    1  POPC         0.000000
    104  H3X      -38.4200  -42.9177   64.5612  H3X    1  POPC         0.000000
    105  H3Y      -37.0385  -41.8863   64.6632  H3Y    1  POPC         0.000000
    106  C34      -36.6357  -43.7876   63.6298  C34    1  POPC         0.000000
    107  H4X      -35.5389  -43.9262   63.8495  H4X    1  POPC         0.000000
    108  H4Y      -37.1321  -44.8193   63.5318  H4Y    1  POPC         0.000000
    109  C35      -36.9448  -43.1560   62.2561  C35    1  POPC         0.000000
    110  H5X      -37.9823  -42.8520   62.1558  H5X    1  POPC         0.000000
    111  H5Y      -36.4014  -42.1822   62.1413  H5Y    1  POPC         0.000000
    112  C36      -36.6293  -44.0491   61.0435  C36    1  POPC         0.000000
    113  H6X      -35.4933  -44.1883   61.0291  H6X    1  POPC         0.000000
    114  H6Y      -37.0791  -45.0878   61.1693  H6Y    1  POPC         0.000000
    115  C37      -37.0798  -43.6056   59.7012  C37    1  POPC         0.000000
    116  H7X      -38.1930  -43.4321   59.7538  H7X    1  POPC         0.000000
    117  H7Y      -36.6870  -42.6448   59.3748  H7Y    1  POPC         0.000000
    118  C38      -36.9852  -44.5250   58.4873  C38    1  POPC         0.000000
    119  H8X      -35.9224  -44.8083   58.4858  H8X    1  POPC         0.000000
    120  H8Y      -37.5829  -45.3834   58.8819  H8Y    1  POPC         0.000000
    121  C39      -37.4864  -43.8420   57.1252  C39    1  POPC         0.000000
    122  H9X      -38.5863  -43.5437   57.2421  H9X    1  POPC         0.000000
    123  H9Y      -36.7527  -42.9841   56.9219  H9Y    1  POPC         0.000000
    124 C310      -37.5639  -44.6908   55.8695 C310    1  POPC         0.000000
    125 H10X      -36.5728  -45.1470   55.6878 H10X    1  POPC         0.000000
    126 H10Y      -38.3443  -45.3398   55.9889 H10Y    1  POPC         0.000000
    127 C311      -37.9474  -43.7953   54.6870 C311    1  POPC         0.000000
    128 H11X      -38.8504  -43.1159   54.9320 H11X    1  POPC         0.000000
    129 H11Y      -37.1009  -43.1721   54.4377 H11Y    1  POPC         0.000000
    130 C312      -38.5139  -44.6602   53.4315 C312    1  POPC         0.000000
    131 H12X      -37.7566  -45.4215   53.2016 H12X    1  POPC         0.000000
    132 H12Y      -39.3832  -45.2455   53.8045 H12Y    1  POPC         0.000000
    133 C313      -38.8668  -43.7059   52.2420 C313    1  POPC         0.000000
    134 H13X      -39.8138  -43.2425   52.6177 H13X    1  POPC         0.000000
    135 H13Y      -38.0596  -42.9213   52.2591 H13Y    1  POPC         0.000000
    136 C314      -39.0303  -44.4167   50.9085 C314    1  POPC         0.000000
    137 H14X      -38.0275  -44.8305   50.4959 H14X    1  POPC         0.000000
    138 H14Y      -39.7775  -45.2645   51.1527 H14Y    1  POPC         0.000000
    139  H79      -39.3397  -44.0104   50.0485    H    1  POPC         0.000000
    140  H84      -32.7952  -47.4196   70.7221  H74    1  POPC         0.000000
    141  H19      -32.2629  -47.9976   69.3808  H19    1  POPC         0.000000
    142  H86      -31.2728  -44.2379   67.6883  H20    1  POPC         0.000000
    143  O15      -29.6656  -44.5112   67.8188  O23    1  POPC         0.000000
    144  C48      -30.5772  -45.2969   69.2037  C42    1  POPC         0.000000
    145  H87      -29.1937  -45.1905   67.2550  H25    1  POPC         0.000000
    146  O16      -30.5408  -44.0411   69.4675  O26    1  POPC         0.000000
    147  H88      -29.9649  -45.5678   69.3774  H27    1  POPC         0.000000
    148  C49      -30.8558  -45.6925   70.1746  C43    1  POPC         0.000000
    149  H89      -31.9680  -44.3820   69.3660  H29    1  POPC         0.000000
    150  O13      -31.8333  -45.3802   70.3121    O    1  POPC         0.000000
    151  H87      -30.2890  -45.3876   70.2504    H    1  POPC         0.000000
    152  H92      -29.3971  -43.6771   73.4925    H    1  POPC         0.000000
    153  H93      -35.0000  -47.0000   62.0000    H    1  POPC         0.000000
    154  H90      -37.6084  -48.1510   64.8869    H    1  POPC         0.000000
    155  H91      -35.9575  -45.2518   65.3774    H    1  POPC         0.000000
    156  H        -31.3668  -49.4492   71.0899    H    1  POPC         0.000000
@<TRIPOS>BOND
    1     1    18  1
    2     1     5  1
    3     1     2  1
    4     1     3  1
    5     2     7  1
    6     4    16  1
    7     5    11  1
    8     5     6  1
    9     5    10  1
   10     7   150  1
   11     7     8  1
   12     7     9  1
   13     8    12  1
   14     8    13  1
   15     8    14  1
   16    11    21  1
   17    13    15  1
   18    14    16  1
   19    14    17  1
   20    14    18  1
   21    18    19  1
   22    18    20  1
   23    20   152  1
   24    22   148  1
   25    22    26  1
   26    22    23  1
   27    22    24  1
   28    23    28  1
   29    25   146  1
   30    26   141  1
   31    26    27  1
   32    26   140  1
   33    27   156  1
   34    28    29  1
   35    28    30  1
   36    28    34  1
   37    29   142  1
   38    29   143  1
   39    29   144  1
   40    31    35  1
   41    31    34  1
   42    31    32  1
   43    31    33  1
   44    35    36  1
   45    36    38  1
   46    36    37  1
   47    36    39  1
   48    39    41  1
   49    39    40  1
   50    39    47  1
   51    41    42  1
   52    41   153  1
   53    42    44  1
   54    42    43  1
   55    44    45  1
   56    44    46  1
   57    44    56  1
   58    47    48  1
   59    47    49  1
   60    47    50  1
   61    48   154  1
   62    50    51  2
   63    50   155  1
   64    51    53  1
   65    51    52  1
   66    53   103  1
   67    53    55  1
   68    53    54  1
   69    56    59  1
   70    56    58  1
   71    56    57  1
   72    59    61  1
   73    59    60  1
   74    59    62  1
   75    62    63  1
   76    62    64  1
   77    62    65  1
   78    65    67  1
   79    65    66  1
   80    65    68  1
   81    68    71  1
   82    68    69  1
   83    68    70  1
   84    71    73  1
   85    71    72  1
   86    71    74  1
   87    74    76  2
   88    74    75  1
   89    76    77  1
   90    76    78  1
   91    78    81  1
   92    78    79  1
   93    78    80  1
   94    81    84  1
   95    81    83  1
   96    81    82  1
   97    84    87  1
   98    84    86  1
   99    84    85  1
  100    87    90  1
  101    87    89  1
  102    87    88  1
  103    90    93  1
  104    90    92  1
  105    90    91  1
  106    93    96  1
  107    93    95  1
  108    93    94  1
  109    96    98  1
  110    96    99  1
  111    96    97  1
  112    99   100  1
  113    99   101  1
  114    99   102  1
  115   103   105  1
  116   103   106  1
  117   103   104  1
  118   106   109  1
  119   106   108  1
  120   106   107  1
  121   109   110  1
  122   109   111  1
  123   109   112  1
  124   112   114  1
  125   112   115  1
  126   112   113  1
  127   115   118  1
  128   115   117  1
  129   115   116  1
  130   118   120  1
  131   118   119  1
  132   118   121  1
  133   121   124  1
  134   121   122  1
  135   121   123  1
  136   124   126  1
  137   124   125  1
  138   124   127  1
  139   127   130  1
  140   127   128  1
  141   127   129  1
  142   130   132  1
  143   130   131  1
  144   130   133  1
  145   133   136  1
  146   133   134  1
  147   133   135  1
  148   136   137  1
  149   136   138  1
  150   136   139  1
  151   143   145  1
  152   144   146  1
  153   144   147  1
  154   144   148  1
  155   148   150  1
  156   148   151  1

@<TRIPOS>SUBSTRUCTURE
1 ****        1 TEMP                        0 ****  **** 0 ROOT
