@<TRIPOS>MOLECULE
generated by VMD
  127  128    1    0    0
SMALL
NO_CHARGES
****
Energy = 0

@<TRIPOS>ATOM
      1  C        -25.3390  -48.2694   71.6931    C    1  POPC         0.000000
      2  O11      -25.1304  -48.8961   70.2941    O    1  POPC         0.000000
      3  H12      -24.3177  -48.6461   72.6453  H12    1  POPC         0.000000
      4  H        -23.1503  -46.7716   70.1897    H    1  POPC         0.000000
      5  C14      -26.6448  -48.5923   72.2701  C14    1  POPC         0.000000
      6  H3       -26.7020  -49.4342   72.8057   H3    1  POPC         0.000000
      7  C15      -25.4957  -47.9497   69.0399  C15    1  POPC         0.000000
      8  C51      -24.7827  -47.0976   69.2231  C51    1  POPC         0.000000
      9  H52      -25.3555  -48.5341   68.0998  H52    1  POPC         0.000000
     10  H74      -27.1050  -47.8579   72.7693  H74    1  POPC         0.000000
     11  O19      -27.2903  -48.7761   71.5292    O    1  POPC         0.000000
     12  H20      -25.1848  -46.2550   68.8670  H20    1  POPC         0.000000
     13  O23      -23.9197  -47.2893   68.7551  O23    1  POPC         0.000000
     14  C42      -24.6689  -47.3420   70.4293  C42    1  POPC         0.000000
     15  H25      -23.9923  -48.1720   68.2873  H25    1  POPC         0.000000
     16  O26      -23.9866  -46.2572   70.3798  O26    1  POPC         0.000000
     17  H27      -24.2302  -47.8647   70.5430  H27    1  POPC         0.000000
     18  C43      -24.8734  -47.4109   71.4555  C43    1  POPC         0.000000
     19  H29      -23.8203  -47.5656   72.9704  H29    1  POPC         0.000000
     20  O30      -25.1624  -46.5009   70.9579  O30    1  POPC         0.000000
     21  H80      -26.8183  -48.6763   70.6534  H80    1  POPC         0.000000
     22  C7       -27.9465  -48.3011   68.3037    C    1  POPC         0.000000
     23  C11      -27.8309  -48.9185   66.8906  C11    1  POPC         0.000000
     24  H11      -26.9273  -48.6730   69.2509  H12    1  POPC         0.000000
     25  H12      -25.7598  -46.7972   66.7978    H    1  POPC         0.000000
     26 C102      -29.2504  -48.6180   68.8864    C    1  POPC         0.000000
     27 O104      -29.2976  -49.4608   69.4215    O    1  POPC         0.000000
     28  C9       -28.1041  -47.9811   65.6428  C15    1  POPC         0.000000
     29  C10      -27.3923  -47.1227   65.8317  C51    1  POPC         0.000000
     30  H14      -27.9645  -48.5496   64.7013  H52    1  POPC         0.000000
     31  P1       -30.3723  -48.3110   66.6917   P1    1  POPC         0.000000
     32  O3       -29.9946  -48.0059   68.0703   O3    1  POPC         0.000000
     33  O4       -30.5269  -49.7263   66.3374   O4    1  POPC         0.000000
     34  O1       -29.4447  -47.6534   65.5831   O1    1  POPC         0.000000
     35  O2       -31.7503  -47.6006   66.2860   O2    1  POPC         0.000000
     36  C1       -32.2556  -47.5630   64.9859   C1    1  POPC         0.000000
     37  HA       -31.8670  -46.6617   64.4538   HA    1  POPC         0.000000
     38  HB       -32.0253  -48.4454   64.3970   HB    1  POPC         0.000000
     39  C2       -33.8234  -47.4058   64.9317   C2    1  POPC         0.000000
     40  HS       -34.2298  -48.1881   65.5389   HS    1  POPC         0.000000
     41  N21      -34.3698  -47.4769   63.5407    N    1  POPC         0.000000
     42  C21      -35.6914  -47.5507   63.4087  C21    1  POPC         0.000000
     43  O22      -36.4823  -47.7764   64.3334  O22    1  POPC         0.000000
     44  C22      -36.0772  -47.0535   62.0019  C22    1  POPC         0.000000
     45  H2R      -36.3263  -46.0161   61.9805  H2R    1  POPC         0.000000
     46  H2S      -35.3517  -47.2811   61.2457  H2S    1  POPC         0.000000
     47  C3       -34.3221  -46.0605   65.5886   C3    1  POPC         0.000000
     48  O        -35.3965  -45.9530   65.3999    O    1  POPC         0.000000
     49  HY       -34.1338  -46.1835   66.6568   HY    1  POPC         0.000000
     50  C31      -33.5443  -44.9877   65.0740    C    1  POPC         0.000000
     51  C17      -33.7743  -43.8374   65.5966  C31    1  POPC         0.000000
     52  H32      -34.6439  -43.6138   66.4160    H    1  POPC         0.000000
     53  C32      -32.8173  -42.7818   64.9690  C32    1  POPC         0.000000
     54  H2X      -32.7905  -41.8225   65.5432  H2X    1  POPC         0.000000
     55  H2Y      -31.8083  -43.1901   65.0229  H2Y    1  POPC         0.000000
     56  C23      -37.3604  -47.8412   61.5297  C23    1  POPC         0.000000
     57  H3R      -37.1149  -48.8714   61.3476  H3R    1  POPC         0.000000
     58  H3S      -38.2137  -47.8381   62.2175  H3S    1  POPC         0.000000
     59  C24      -37.7032  -47.4622   60.0572  C24    1  POPC         0.000000
     60  H4R      -37.8322  -46.3928   60.1147  H4R    1  POPC         0.000000
     61  H4S      -36.8144  -47.5806   59.4203  H4S    1  POPC         0.000000
     62  C25      -38.8664  -48.0763   59.3075  C25    1  POPC         0.000000
     63  H5R      -38.7259  -49.1759   59.2908  H5R    1  POPC         0.000000
     64  H5S      -39.8346  -47.9161   59.9080  H5S    1  POPC         0.000000
     65  C26      -39.0958  -47.5865   57.8832  C26    1  POPC         0.000000
     66  H6R      -39.3764  -46.5259   57.9474  H6R    1  POPC         0.000000
     67  H6S      -38.1238  -47.7205   57.2878  H6S    1  POPC         0.000000
     68  C27      -40.2308  -48.2663   57.1008  C27    1  POPC         0.000000
     69  H7R      -39.8959  -49.3043   56.8053  H7R    1  POPC         0.000000
     70  H7S      -41.1762  -48.4308   57.7670  H7S    1  POPC         0.000000
     71  C28      -40.7862  -47.3923   55.9545  C28    1  POPC         0.000000
     72  H8R      -41.3025  -46.5350   56.5582  H8R    1  POPC         0.000000
     73  H8S      -40.0018  -46.9667   55.2354  H8S    1  POPC         0.000000
     74  C29      -41.8343  -48.2028   55.1316  C29    1  POPC         0.000000
     75  H91      -42.6793  -48.3693   56.1035  H91    1  POPC         0.000000
     76 C210      -41.8004  -48.5558   53.7828 C210    1  POPC         0.000000
     77 H101      -42.6714  -49.1116   53.5112 H101    1  POPC         0.000000
     78 C211      -40.7337  -48.3124   52.7286 C211    1  POPC         0.000000
     79 H11R      -39.8874  -47.6039   53.0868 H11R    1  POPC         0.000000
     80 H11S      -40.2170  -49.2169   52.6301 H11S    1  POPC         0.000000
     81 C212      -41.2335  -47.6857   51.4854 C212    1  POPC         0.000000
     82 H12R      -41.6384  -46.6785   51.6865 H12R    1  POPC         0.000000
     83 H12S      -40.4490  -47.6013   50.7398 H12S    1  POPC         0.000000
     84  H        -41.9569  -48.0681   50.9106    H    1  POPC         0.000000
     85  H        -36.9244  -44.6465   54.5295    H    1  POPC         0.000000
     86  C33      -33.1185  -42.4778   63.4680  C33    1  POPC         0.000000
     87  H3X      -34.0705  -41.8925   63.4803  H3X    1  POPC         0.000000
     88  H3Y      -32.4013  -41.6980   63.0821  H3Y    1  POPC         0.000000
     89  C34      -33.2250  -43.6449   62.4691  C34    1  POPC         0.000000
     90  H4X      -32.3041  -44.2934   62.5105  H4X    1  POPC         0.000000
     91  H4Y      -34.1473  -44.2871   62.7090  H4Y    1  POPC         0.000000
     92  C35      -33.5723  -43.1045   61.0658  C35    1  POPC         0.000000
     93  H5X      -34.3339  -42.3311   61.0886  H5X    1  POPC         0.000000
     94  H5Y      -32.6958  -42.5599   60.6277  H5Y    1  POPC         0.000000
     95  C36      -34.0531  -44.1655   60.0606  C36    1  POPC         0.000000
     96  H6X      -33.1639  -44.8609   59.8716  H6X    1  POPC         0.000000
     97  H6Y      -34.8776  -44.8118   60.5073  H6Y    1  POPC         0.000000
     98  C37      -34.5978  -43.7109   58.7574  C37    1  POPC         0.000000
     99  H7X      -35.4414  -42.9934   58.9707  H7X    1  POPC         0.000000
    100  H7Y      -33.9125  -43.1251   58.1481  H7Y    1  POPC         0.000000
    101  C38      -35.2773  -44.6828   57.7976  C38    1  POPC         0.000000
    102  H8X      -34.5128  -45.4630   57.6682  H8X    1  POPC         0.000000
    103  H8Y      -36.0691  -45.0696   58.4856  H8Y    1  POPC         0.000000
    104  C39      -35.7595  -44.0000   56.4286  C39    1  POPC         0.000000
    105  H9X      -36.5166  -43.1752   56.6714  H9X    1  POPC         0.000000
    106  H9Y      -34.8006  -43.6608   55.8984  H9Y    1  POPC         0.000000
    107 C310      -36.5630  -44.8293   55.4438 C310    1  POPC         0.000000
    108 H10X      -35.9885  -45.7413   55.1961 H10X    1  POPC         0.000000
    109 H10Y      -37.4879  -44.9758   55.8532 H10Y    1  POPC         0.000000
    110  H84      -29.7122  -47.8877   69.3899  H74    1  POPC         0.000000
    111  H19      -29.9002  -48.8037   68.1481  H19    1  POPC         0.000000
    112  H86      -27.7945  -46.2821   65.4671  H20    1  POPC         0.000000
    113  O15      -26.5300  -47.3141   65.3617  O23    1  POPC         0.000000
    114  C48      -27.2800  -47.3673   67.0352  C42    1  POPC         0.000000
    115  H87      -26.6016  -48.1977   64.8969  H25    1  POPC         0.000000
    116  O16      -26.5963  -46.2820   66.9851  O26    1  POPC         0.000000
    117  H88      -26.8412  -47.8890   67.1527  H27    1  POPC         0.000000
    118  C49      -27.4302  -47.4544   68.1061  C43    1  POPC         0.000000
    119  O13      -28.0719  -46.6771   68.3429    O    1  POPC         0.000000
    120  H83      -26.7905  -47.4718   68.0030    H    1  POPC         0.000000
    121  H92      -24.3550  -46.0921   70.5322    H    1  POPC         0.000000
    122  H93      -33.7799  -47.4044   61.3692    H    1  POPC         0.000000
    123  H90      -35.7151  -46.7410   64.8732    H    1  POPC         0.000000
    124  H87      -32.8485  -45.0414   64.3573    H    1  POPC         0.000000
    125  H88      -29.3448  -50.3041   69.9568    H    1  POPC         0.000000
    126  H        -42.2409  -48.7020   54.3664    H    1  POPC         0.000000
    127  H        -42.7612  -48.7969   53.6462    H    1  POPC         0.000000
@<TRIPOS>BOND
    1     1    18  1
    2     1     5  1
    3     1     2  1
    4     1     3  1
    5     2     7  1
    6     4    16  1
    7     5    11  1
    8     5     6  1
    9     5    10  1
   10     7   119  1
   11     7     8  1
   12     7     9  1
   13     8    12  1
   14     8    13  1
   15     8    14  1
   16    11    21  1
   17    13    15  1
   18    14    16  1
   19    14    17  1
   20    14    18  1
   21    18    19  1
   22    18    20  1
   23    20   121  1
   24    22   118  1
   25    22    26  1
   26    22    23  1
   27    22    24  1
   28    23    28  1
   29    25   116  1
   30    26   111  1
   31    26    27  1
   32    26   110  1
   33    27   125  1
   34    28    29  1
   35    28    30  1
   36    28    34  1
   37    29   112  1
   38    29   113  1
   39    29   114  1
   40    31    35  1
   41    31    34  1
   42    31    32  1
   43    31    33  1
   44    35    36  1
   45    36    38  1
   46    36    37  1
   47    36    39  1
   48    39    41  1
   49    39    40  1
   50    39    47  1
   51    41    42  1
   52    41   122  1
   53    42    44  1
   54    42    43  1
   55    44    45  1
   56    44    46  1
   57    44    56  1
   58    47    48  1
   59    47    49  1
   60    47    50  1
   61    48   123  1
   62    50    51  2
   63    50   124  1
   64    51    53  1
   65    51    52  1
   66    53    86  1
   67    53    55  1
   68    53    54  1
   69    56    59  1
   70    56    58  1
   71    56    57  1
   72    59    61  1
   73    59    60  1
   74    59    62  1
   75    62    63  1
   76    62    64  1
   77    62    65  1
   78    65    67  1
   79    65    66  1
   80    65    68  1
   81    68    71  1
   82    68    69  1
   83    68    70  1
   84    71    73  1
   85    71    72  1
   86    71    74  1
   87    74    76  1
   88    74    75  1
   89    74   126  1
   90    76    77  1
   91    76    78  1
   92    76   127  1
   93    78    81  1
   94    78    79  1
   95    78    80  1
   96    81    83  1
   97    81    82  1
   98    81    84 -1
   99    85   107 -1
  100    86    88  1
  101    86    89  1
  102    86    87  1
  103    89    92  1
  104    89    91  1
  105    89    90  1
  106    92    93  1
  107    92    94  1
  108    92    95  1
  109    95    97  1
  110    95    98  1
  111    95    96  1
  112    98   101  1
  113    98   100  1
  114    98    99  1
  115   101   103  1
  116   101   102  1
  117   101   104  1
  118   104   107  1
  119   104   105  1
  120   104   106  1
  121   107   109  1
  122   107   108  1
  123   113   115  1
  124   114   116  1
  125   114   117  1
  126   114   118  1
  127   118   119  1
  128   118   120  1

@<TRIPOS>SUBSTRUCTURE
1 ****        1 TEMP                        0 ****  **** 0 ROOT
