@<TRIPOS>MOLECULE
generated by VMD
  159  160    1    0    0
SMALL
NO_CHARGES
****
Energy = 0

@<TRIPOS>ATOM
      1  C        -25.3430  -48.2790   71.6952    C    1  POPC         0.000000
      2  O11      -25.1347  -48.9065   70.2965    O    1  POPC         0.000000
      3  H12      -24.3223  -48.6562   72.6478  H12    1  POPC         0.000000
      4  H        -23.1525  -46.7840   70.1914    H    1  POPC         0.000000
      5  C14      -26.6493  -48.6003   72.2720  C14    1  POPC         0.000000
      6  H3       -26.7074  -49.4419   72.8080   H3    1  POPC         0.000000
      7  C15      -25.4988  -47.9604   69.0418  C15    1  POPC         0.000000
      8  C51      -24.7850  -47.1089   69.2248  C51    1  POPC         0.000000
      9  H52      -25.3590  -48.5454   68.1020  H52    1  POPC         0.000000
     10  H74      -27.1089  -47.8652   72.7708  H74    1  POPC         0.000000
     11  O19      -27.2948  -48.7838   71.5311    O    1  POPC         0.000000
     12  H20      -25.1862  -46.2661   68.8682  H20    1  POPC         0.000000
     13  O23      -23.9221  -47.3017   68.7570  O23    1  POPC         0.000000
     14  C42      -24.6717  -47.3528   70.4311  C42    1  POPC         0.000000
     15  H25      -23.9955  -48.1845   68.2896  H25    1  POPC         0.000000
     16  O26      -23.9883  -46.2687   70.3812  O26    1  POPC         0.000000
     17  H27      -24.2336  -47.8759   70.5451  H27    1  POPC         0.000000
     18  C43      -24.8765  -47.4210   71.4573  C43    1  POPC         0.000000
     19  H29      -23.8239  -47.5761   72.9725  H29    1  POPC         0.000000
     20  O30      -25.1645  -46.5110   70.9592  O30    1  POPC         0.000000
     21  H80      -26.8225  -48.6849   70.6554  H80    1  POPC         0.000000
     22  C7       -27.9498  -48.3097   68.3052    C    1  POPC         0.000000
     23  C11      -27.8345  -48.9279   66.8924  C11    1  POPC         0.000000
     24  H11      -26.9312  -48.6821   69.2528  H12    1  POPC         0.000000
     25  H12      -25.7612  -46.8087   66.7991    H    1  POPC         0.000000
     26 C102      -29.2541  -48.6250   68.8878    C    1  POPC         0.000000
     27 O104      -29.3023  -49.4675   69.4232    O    1  POPC         0.000000
     28  C9       -28.1065  -47.9908   65.6441  C15    1  POPC         0.000000
     29  C10      -27.3938  -47.1330   65.8328  C51    1  POPC         0.000000
     30  H14      -27.9672  -48.5599   64.7029  H52    1  POPC         0.000000
     31  P1       -30.3752  -48.3179   66.6926   P1    1  POPC         0.000000
     32  O3       -29.9975  -48.0126   68.0712   O3    1  POPC         0.000000
     33  O4       -30.5311  -49.7333   66.3390   O4    1  POPC         0.000000
     34  O1       -29.4467  -47.6618   65.5840   O1    1  POPC         0.000000
     35  O2       -31.7524  -47.6064   66.2863   O2    1  POPC         0.000000
     36  C1       -32.2572  -47.5685   64.9860   C1    1  POPC         0.000000
     37  HA       -31.8676  -46.6677   64.4539   HA    1  POPC         0.000000
     38  HB       -32.0275  -48.4512   64.3973   HB    1  POPC         0.000000
     39  C2       -33.8248  -47.4099   64.9311   C2    1  POPC         0.000000
     40  HS       -34.2322  -48.1917   65.5383   HS    1  POPC         0.000000
     41  N21      -34.3708  -47.4808   63.5400    N    1  POPC         0.000000
     42  C21      -35.6924  -47.5534   63.4075  C21    1  POPC         0.000000
     43  O22      -36.4838  -47.7782   64.3319  O22    1  POPC         0.000000
     44  C22      -36.0772  -47.0561   62.0005  C22    1  POPC         0.000000
     45  H2R      -36.3253  -46.0185   61.9788  H2R    1  POPC         0.000000
     46  H2S      -35.3516  -47.2845   61.2446  H2S    1  POPC         0.000000
     47  C3       -34.3226  -46.0640   65.5876   C3    1  POPC         0.000000
     48  O        -35.3968  -45.9556   65.3985    O    1  POPC         0.000000
     49  HY       -34.1348  -46.1870   66.6559   HY    1  POPC         0.000000
     50  C31      -33.5436  -44.9920   65.0731    C    1  POPC         0.000000
     51  C17      -33.7727  -43.8414   65.5955  C31    1  POPC         0.000000
     52  H32      -34.6425  -43.6169   66.4145    H    1  POPC         0.000000
     53  C32      -32.8145  -42.7868   64.9680  C32    1  POPC         0.000000
     54  H2X      -32.7871  -41.8274   65.5421  H2X    1  POPC         0.000000
     55  H2Y      -31.8059  -43.1960   65.0224  H2Y    1  POPC         0.000000
     56  C23      -37.3609  -47.8427   61.5279  C23    1  POPC         0.000000
     57  H3R      -37.1163  -48.8732   61.3461  H3R    1  POPC         0.000000
     58  H3S      -38.2145  -47.8387   62.2154  H3S    1  POPC         0.000000
     59  C24      -37.7028  -47.4636   60.0552  C24    1  POPC         0.000000
     60  H4R      -37.8309  -46.3941   60.1125  H4R    1  POPC         0.000000
     61  H4S      -36.8139  -47.5830   59.4187  H4S    1  POPC         0.000000
     62  C25      -38.8663  -48.0768   59.3052  C25    1  POPC         0.000000
     63  H5R      -38.7269  -49.1766   59.2890  H5R    1  POPC         0.000000
     64  H5S      -39.8346  -47.9154   59.9052  H5S    1  POPC         0.000000
     65  C26      -39.0945  -47.5873   57.8806  C26    1  POPC         0.000000
     66  H6R      -39.3740  -46.5264   57.9442  H6R    1  POPC         0.000000
     67  H6S      -38.1223  -47.7226   57.2857  H6S    1  POPC         0.000000
     68  C27      -40.2298  -48.2663   57.0979  C27    1  POPC         0.000000
     69  H7R      -39.8958  -49.3047   56.8029  H7R    1  POPC         0.000000
     70  H7S      -41.1757  -48.4295   57.7637  H7S    1  POPC         0.000000
     71  C28      -40.7837  -47.3921   55.9510  C28    1  POPC         0.000000
     72  H8R      -41.2996  -46.5341   56.5541  H8R    1  POPC         0.000000
     73  H8S      -39.9985  -46.9675   55.2322  H8S    1  POPC         0.000000
     74  C29      -41.8321  -48.2019   55.1277  C29    1  POPC         0.000000
     75  H91      -42.6778  -48.3673   56.0992  H91    1  POPC         0.000000
     76 C210      -41.7978  -48.5554   53.7791 C210    1  POPC         0.000000
     77 C211      -40.7304  -48.3130   52.7253 C211    1  POPC         0.000000
     78 H11R      -39.8839  -47.6047   53.0836 H11R    1  POPC         0.000000
     79 H11S      -40.2141  -49.2178   52.6274 H11S    1  POPC         0.000000
     80 C212      -41.2292  -47.6865   51.4816 C212    1  POPC         0.000000
     81 H12R      -41.6337  -46.6790   51.6821 H12R    1  POPC         0.000000
     82 H12S      -40.4443  -47.6028   50.7364 H12S    1  POPC         0.000000
     83 C213      -42.3403  -48.3900   50.7319 C213    1  POPC         0.000000
     84 H13R      -41.9829  -49.3766   50.3942 H13R    1  POPC         0.000000
     85 H13S      -43.2877  -48.5058   51.3461 H13S    1  POPC         0.000000
     86 C214      -42.7843  -47.5382   49.5560 C214    1  POPC         0.000000
     87 H14R      -43.2000  -46.6563   49.9788 H14R    1  POPC         0.000000
     88 H14S      -41.9197  -47.3332   48.9619 H14S    1  POPC         0.000000
     89 C215      -43.7720  -48.2065   48.5959 C215    1  POPC         0.000000
     90 H15R      -43.3345  -49.1280   48.1417 H15R    1  POPC         0.000000
     91 H15S      -44.5521  -48.4565   49.3197 H15S    1  POPC         0.000000
     92 C216      -44.3135  -47.2769   47.4545 C216    1  POPC         0.000000
     93 H16R      -45.1262  -46.6458   47.8453 H16R    1  POPC         0.000000
     94 H16S      -43.5211  -46.6276   47.0451 H16S    1  POPC         0.000000
     95 C217      -44.9258  -48.0268   46.2607 C217    1  POPC         0.000000
     96 H17R      -44.2933  -48.9589   45.9802 H17R    1  POPC         0.000000
     97 H17S      -45.9862  -48.3505   46.5847 H17S    1  POPC         0.000000
     98 C218      -44.9904  -47.2109   45.0032 C218    1  POPC         0.000000
     99 H18R      -45.2820  -47.9174   44.1939 H18R    1  POPC         0.000000
    100 H18S      -45.7041  -46.4161   45.1212 H18S    1  POPC         0.000000
    101 H18T      -43.9574  -46.8826   44.8291 H18T    1  POPC         0.000000
    102  C33      -33.1149  -42.4828   63.4669  C33    1  POPC         0.000000
    103  H3X      -34.0663  -41.8966   63.4787  H3X    1  POPC         0.000000
    104  H3Y      -32.3968  -41.7038   63.0811  H3Y    1  POPC         0.000000
    105  C34      -33.2221  -43.6500   62.4682  C34    1  POPC         0.000000
    106  H4X      -32.3018  -44.2994   62.5100  H4X    1  POPC         0.000000
    107  H4Y      -34.1451  -44.2913   62.7078  H4Y    1  POPC         0.000000
    108  C35      -33.5684  -43.1095   61.0646  C35    1  POPC         0.000000
    109  H5X      -34.3293  -42.3354   61.0870  H5X    1  POPC         0.000000
    110  H5Y      -32.6912  -42.5658   60.6268  H5Y    1  POPC         0.000000
    111  C36      -34.0498  -44.1703   60.0594  C36    1  POPC         0.000000
    112  H6X      -33.1611  -44.8664   59.8707  H6X    1  POPC         0.000000
    113  H6Y      -34.8749  -44.8159   60.5061  H6Y    1  POPC         0.000000
    114  C37      -34.5939  -43.7154   58.7561  C37    1  POPC         0.000000
    115  H7Y      -33.9080  -43.1302   58.1469  H7Y    1  POPC         0.000000
    116  C38      -35.2739  -44.6868   57.7962  C38    1  POPC         0.000000
    117  H8X      -34.5099  -45.4675   57.6669  H8X    1  POPC         0.000000
    118  C39      -35.7556  -44.0037   56.4272  C39    1  POPC         0.000000
    119  H9X      -36.5121  -43.1785   56.6699  H9X    1  POPC         0.000000
    120  H9Y      -34.7964  -43.6652   55.8971  H9Y    1  POPC         0.000000
    121 C310      -36.5595  -44.8325   55.4424 C310    1  POPC         0.000000
    122 H10X      -35.9856  -45.7449   55.1947 H10X    1  POPC         0.000000
    123 H10Y      -37.4846  -44.9784   55.8517 H10Y    1  POPC         0.000000
    124 C311      -36.7942  -44.0070   54.1731 C311    1  POPC         0.000000
    125 H11X      -37.1732  -42.9411   54.4125 H11X    1  POPC         0.000000
    126 H11Y      -35.8612  -43.9313   53.6337 H11Y    1  POPC         0.000000
    127 C312      -38.0176  -44.6017   53.2817 C312    1  POPC         0.000000
    128 H12X      -37.7951  -45.6621   53.1027 H12X    1  POPC         0.000000
    129 H12Y      -38.9182  -44.6194   53.9345 H12Y    1  POPC         0.000000
    130 C313      -38.2011  -43.7423   51.9865 C313    1  POPC         0.000000
    131 H13X      -38.6812  -42.8239   52.4094 H13X    1  POPC         0.000000
    132 H13Y      -37.1532  -43.4785   51.6705 H13Y    1  POPC         0.000000
    133 C314      -39.0352  -44.4183   50.9105 C314    1  POPC         0.000000
    134 H14X      -38.4953  -45.3267   50.4304 H14X    1  POPC         0.000000
    135 H14Y      -39.9898  -44.7368   51.4797 H14Y    1  POPC         0.000000
    136  C79      -39.3448  -44.0118   50.0506    C    1  POPC         0.000000
    137  H84      -29.7153  -47.8940   69.3908  H74    1  POPC         0.000000
    138  H19      -29.9040  -48.8104   68.1494  H19    1  POPC         0.000000
    139  H86      -27.7951  -46.2922   65.4677  H20    1  POPC         0.000000
    140  O15      -26.5316  -47.3255   65.3630  O23    1  POPC         0.000000
    141  C48      -27.2821  -47.3772   67.0364  C42    1  POPC         0.000000
    142  H87      -26.6039  -48.2094   64.8989  H25    1  POPC         0.000000
    143  O16      -26.5973  -46.2925   66.9859  O26    1  POPC         0.000000
    144  H88      -26.8438  -47.8992   67.1543  H27    1  POPC         0.000000
    145  C49      -27.4326  -47.4636   68.1073  C43    1  POPC         0.000000
    146  O13      -28.0736  -46.6855   68.3436    O    1  POPC         0.000000
    147  H83      -26.7929  -47.4817   68.0044    H    1  POPC         0.000000
    148  H92      -24.3566  -46.1032   70.5335    H    1  POPC         0.000000
    149  H93      -33.7800  -47.4092   61.3687    H    1  POPC         0.000000
    150  H90      -35.7158  -46.7432   64.8715    H    1  POPC         0.000000
    151  H87      -32.8476  -45.0465   64.3567    H    1  POPC         0.000000
    152  H88      -29.3505  -50.3105   69.9589    H    1  POPC         0.000000
    153  C51      -40.1747  -44.4811   49.7490   C1    1  POPC         0.000000
    154  H89      -38.6256  -44.1158   49.3638    H    1  POPC         0.000000
    155  H90      -39.5365  -43.0418   50.1995    H    1  POPC         0.000000
    156  H91      -40.0092  -44.8914   48.8522    H    1  POPC         0.000000
    157  H92      -40.9203  -43.8172   49.6880    H    1  POPC         0.000000
    158  H93      -40.4057  -45.1930   50.4123    H    1  POPC         0.000000
    159  H        -42.7586  -48.7959   53.6421    H    1  POPC         0.000000
@<TRIPOS>BOND
    1     1    18  1
    2     1     5  1
    3     1     2  1
    4     1     3  1
    5     2     7  1
    6     4    16  1
    7     5    11  1
    8     5     6  1
    9     5    10  1
   10     7   146  1
   11     7     8  1
   12     7     9  1
   13     8    12  1
   14     8    13  1
   15     8    14  1
   16    11    21  1
   17    13    15  1
   18    14    16  1
   19    14    17  1
   20    14    18  1
   21    18    19  1
   22    18    20  1
   23    20   148  1
   24    22   145  1
   25    22    26  1
   26    22    23  1
   27    22    24  1
   28    23    28  1
   29    25   143  1
   30    26   138  1
   31    26    27  1
   32    26   137  1
   33    27   152  1
   34    28    29  1
   35    28    30  1
   36    28    34  1
   37    29   139  1
   38    29   140  1
   39    29   141  1
   40    31    35  1
   41    31    34  1
   42    31    32  1
   43    31    33  1
   44    35    36  1
   45    36    38  1
   46    36    37  1
   47    36    39  1
   48    39    41  1
   49    39    40  1
   50    39    47  1
   51    41    42  1
   52    41   149  1
   53    42    44  1
   54    42    43  1
   55    44    45  1
   56    44    46  1
   57    44    56  1
   58    47    48  1
   59    47    49  1
   60    47    50  1
   61    48   150  1
   62    50    51  2
   63    50   151  1
   64    51    53  1
   65    51    52  1
   66    53   102  1
   67    53    55  1
   68    53    54  1
   69    56    59  1
   70    56    58  1
   71    56    57  1
   72    59    61  1
   73    59    60  1
   74    59    62  1
   75    62    63  1
   76    62    64  1
   77    62    65  1
   78    65    67  1
   79    65    66  1
   80    65    68  1
   81    68    71  1
   82    68    69  1
   83    68    70  1
   84    71    73  1
   85    71    72  1
   86    71    74  1
   87    74    76  2
   88    74    75  1
   89    76    77  1
   90    76   159  1
   91    77    80  1
   92    77    78  1
   93    77    79  1
   94    80    83  1
   95    80    82  1
   96    80    81  1
   97    83    86  1
   98    83    85  1
   99    83    84  1
  100    86    89  1
  101    86    88  1
  102    86    87  1
  103    89    92  1
  104    89    91  1
  105    89    90  1
  106    92    95  1
  107    92    94  1
  108    92    93  1
  109    95    97  1
  110    95    98  1
  111    95    96  1
  112    98    99  1
  113    98   100  1
  114    98   101  1
  115   102   104  1
  116   102   105  1
  117   102   103  1
  118   105   108  1
  119   105   107  1
  120   105   106  1
  121   108   109  1
  122   108   110  1
  123   108   111  1
  124   111   113  1
  125   111   114  1
  126   111   112  1
  127   114   116  2
  128   114   115  1
  129   116   117  1
  130   116   118  1
  131   118   121  1
  132   118   119  1
  133   118   120  1
  134   121   123  1
  135   121   122  1
  136   121   124  1
  137   124   127  1
  138   124   125  1
  139   124   126  1
  140   127   129  1
  141   127   128  1
  142   127   130  1
  143   130   133  1
  144   130   131  1
  145   130   132  1
  146   133   134  1
  147   133   135  1
  148   133   136  1
  149   136   153  1
  150   136   154  1
  151   136   155  1
  152   140   142  1
  153   141   143  1
  154   141   144  1
  155   141   145  1
  156   145   146  1
  157   145   147  1
  158   153   156  1
  159   153   157  1
  160   153   158  1

@<TRIPOS>SUBSTRUCTURE
1 ****        1 TEMP                        0 ****  **** 0 ROOT
