@<TRIPOS>MOLECULE
generated by VMD
  134  133    1    0    0
SMALL
NO_CHARGES
****
Energy = 0

@<TRIPOS>ATOM
      1  N        -31.2844  -47.0308   65.6158    N    1  POPC         0.000000
      2  C11      -30.5573  -46.2492   66.7340  C11    1  POPC         0.000000
      3  C12      -31.4086  -46.2718   64.3907  C12    1  POPC         0.000000
      4  C13      -32.6938  -47.4440   66.0343  C13    1  POPC         0.000000
      5  C14      -30.6501  -48.3122   65.2991  C14    1  POPC         0.000000
      6  H11      -29.7928  -45.6056   66.1382  H11    1  POPC         0.000000
      7  H12      -30.0360  -46.9374   67.4112  H12    1  POPC         0.000000
      8  H21      -32.0651  -45.4324   64.4594  H21    1  POPC         0.000000
      9  H22      -30.4942  -45.7663   64.1730  H22    1  POPC         0.000000
     10  H23      -31.6917  -46.9077   63.5357  H23    1  POPC         0.000000
     11  H31      -33.2104  -46.5607   66.2661  H31    1  POPC         0.000000
     12  H32      -33.1979  -48.0847   65.3052  H32    1  POPC         0.000000
     13  H33      -32.7514  -47.9669   67.0064  H33    1  POPC         0.000000
     14  H41      -31.1343  -49.0479   64.6150  H41    1  POPC         0.000000
     15  H42      -29.6138  -48.0888   64.9994  H42    1  POPC         0.000000
     16  H43      -30.5657  -48.8672   66.2111  H43    1  POPC         0.000000
     17  C15      -31.4520  -45.1676   67.5306  C15    1  POPC         0.000000
     18  H51      -32.1326  -45.8572   68.1004  H51    1  POPC         0.000000
     19  H52      -30.7718  -44.5169   68.1308  H52    1  POPC         0.000000
     20  P1       -33.5261  -43.8174   67.0989   P1    1  POPC         0.000000
     21  O3       -33.6642  -43.2433   68.4358   O3    1  POPC         0.000000
     22  O4       -34.4076  -44.9459   66.7787   O4    1  POPC         0.000000
     23  O1       -32.0512  -44.2493   66.6954   O1    1  POPC         0.000000
     24  O2       -33.7621  -42.7174   65.9577   O2    1  POPC         0.000000
     25  C1       -33.5208  -42.9296   64.6008   C1    1  POPC         0.000000
     26  HA       -32.4655  -42.6642   64.3531   HA    1  POPC         0.000000
     27  HB       -33.7142  -43.9475   64.2768   HB    1  POPC         0.000000
     28  C2       -34.3859  -42.0051   63.6615   C2    1  POPC         0.000000
     29  HS       -35.4071  -42.1415   63.9542   HS    1  POPC         0.000000
     30  O21      -34.2086  -42.3153   62.2076  O21    1  POPC         0.000000
     31  C21      -35.0380  -41.7259   61.3523  C21    1  POPC         0.000000
     32  O22      -36.0658  -41.1163   61.6719  O22    1  POPC         0.000000
     33  C22      -34.3776  -41.7014   59.9605  C22    1  POPC         0.000000
     34  H2R      -33.8460  -40.7967   59.7676  H2R    1  POPC         0.000000
     35  H2S      -33.7580  -42.5527   59.7557  H2S    1  POPC         0.000000
     36  C3       -34.0881  -40.4703   63.8765   C3    1  POPC         0.000000
     37  HX       -34.6196  -39.8970   63.1073   HX    1  POPC         0.000000
     38  HY       -34.4893  -40.2420   64.8643   HY    1  POPC         0.000000
     39  O31      -32.6800  -40.2751   63.8589  O31    1  POPC         0.000000
     40  C31      -32.2844  -39.0813   64.1230  C31    1  POPC         0.000000
     41  O32      -33.0229  -38.1329   64.2977  O32    1  POPC         0.000000
     42  C32      -30.7274  -39.0382   64.1165  C32    1  POPC         0.000000
     43  H2X      -30.3160  -38.1044   64.5736  H2X    1  POPC         0.000000
     44  H2Y      -30.3801  -39.8564   64.7447  H2Y    1  POPC         0.000000
     45  C23      -35.5123  -41.8028   58.8681  C23    1  POPC         0.000000
     46  H3R      -35.9588  -42.7795   58.8890  H3R    1  POPC         0.000000
     47  H3S      -36.3329  -41.0783   58.9498  H3S    1  POPC         0.000000
     48  C24      -34.8759  -41.9142   57.4503  C24    1  POPC         0.000000
     49  H4R      -34.2793  -41.0176   57.3905  H4R    1  POPC         0.000000
     50  H4S      -34.1283  -42.7227   57.4336  H4S    1  POPC         0.000000
     51  C25      -35.7066  -42.0578   56.1931  C25    1  POPC         0.000000
     52  H5R      -36.3321  -42.9675   56.2929  H5R    1  POPC         0.000000
     53  H5S      -36.4600  -41.1914   56.1318  H5S    1  POPC         0.000000
     54  C26      -34.9442  -42.1283   54.8743  C26    1  POPC         0.000000
     55  H6R      -34.4526  -41.1556   54.7354  H6R    1  POPC         0.000000
     56  H6S      -34.1737  -42.9758   54.9406  H6S    1  POPC         0.000000
     57  C27      -35.7879  -42.3489   53.6081  C27    1  POPC         0.000000
     58  H7R      -36.1355  -43.4237   53.5880  H7R    1  POPC         0.000000
     59  H7S      -36.7665  -41.7134   53.6247  H7S    1  POPC         0.000000
     60  C28      -35.0942  -41.8474   52.3223  C28    1  POPC         0.000000
     61  H8R      -35.1056  -40.6924   52.4992  H8R    1  POPC         0.000000
     62  H8S      -34.0233  -42.2220   52.1616  H8S    1  POPC         0.000000
     63  C29      -35.9520  -42.2290   51.0760  C29    1  POPC         0.000000
     64  H91      -36.9198  -41.6867   50.9338  H91    1  POPC         0.000000
     65 C210      -35.6080  -43.0420   49.9960 C210    1  POPC         0.000000
     66 H101      -36.4130  -43.1080   49.2970 H101    1  POPC         0.000000
     67 C211      -34.3400  -43.8330   49.7270 C211    1  POPC         0.000000
     68 H11R      -33.4870  -43.6050   50.4790 H11R    1  POPC         0.000000
     69 H11S      -34.5660  -44.8260   49.9670 H11S    1  POPC         0.000000
     70 C212      -33.7340  -43.5870   48.3990 C212    1  POPC         0.000000
     71 H12R      -33.4120  -42.5350   48.3040 H12R    1  POPC         0.000000
     72 H12S      -32.8760  -44.2290   48.2290 H12S    1  POPC         0.000000
     73 C213      -34.5900  -43.8250   47.1750 C213    1  POPC         0.000000
     74 H13R      -34.8730  -44.8900   47.1310 H13R    1  POPC         0.000000
     75 H13S      -35.5190  -43.1740   47.1480 H13S    1  POPC         0.000000
     76 C214      -33.8300  -43.4110   45.9290 C214    1  POPC         0.000000
     77 H14R      -33.6880  -42.3610   46.0130 H14R    1  POPC         0.000000
     78 H14S      -32.9050  -43.9440   45.9230 H14S    1  POPC         0.000000
     79 C215      -34.5000  -43.7700   44.6000 C215    1  POPC         0.000000
     80 H15R      -34.6420  -44.8740   44.5020 H15R    1  POPC         0.000000
     81 H15S      -35.4550  -43.2630   44.7610 H15S    1  POPC         0.000000
     82 C216      -33.7650  -43.2300   43.3230 C216    1  POPC         0.000000
     83 H16R      -34.0260  -42.1720   43.1640 H16R    1  POPC         0.000000
     84 H16S      -32.6690  -43.3190   43.4150 H16S    1  POPC         0.000000
     85 C217      -34.1550  -43.9410   42.0170 C217    1  POPC         0.000000
     86 H17R      -34.2500  -45.0880   42.1750 H17R    1  POPC         0.000000
     87 H17S      -35.1720  -43.4990   41.6930 H17S    1  POPC         0.000000
     88 C218      -33.1440  -43.7840   40.9200 C218    1  POPC         0.000000
     89  C        -33.4590  -44.4810   40.1110   C1    1  POPC         0.000000
     90 H18S      -33.1220  -42.7620   40.5870 H18S    1  POPC         0.000000
     91 H18T      -32.2030  -44.1490   41.3520 H18T    1  POPC         0.000000
     92  C33      -30.1030  -39.2376   62.6997  C33    1  POPC         0.000000
     93  H3X      -30.3263  -38.2896   62.1506  H3X    1  POPC         0.000000
     94  H3Y      -28.9780  -39.1803   62.7641  H3Y    1  POPC         0.000000
     95  C34      -30.5275  -40.4535   61.8536  C34    1  POPC         0.000000
     96  H4X      -30.3882  -41.4115   62.4307  H4X    1  POPC         0.000000
     97  H4Y      -31.6303  -40.3578   61.5483  H4Y    1  POPC         0.000000
     98  C35      -29.8150  -40.4149   60.4849  C35    1  POPC         0.000000
     99  H5X      -29.7983  -39.4210   60.0478  H5X    1  POPC         0.000000
    100  H5Y      -28.7222  -40.6396   60.6062  H5Y    1  POPC         0.000000
    101  C36      -30.4032  -41.3567   59.4187  C36    1  POPC         0.000000
    102  H6X      -30.2199  -42.4228   59.7909  H6X    1  POPC         0.000000
    103  H6Y      -31.5321  -41.2320   59.3384  H6Y    1  POPC         0.000000
    104  C37      -29.9137  -41.2390   58.0249  C37    1  POPC         0.000000
    105  H7X      -30.0630  -40.1690   57.6978  H7X    1  POPC         0.000000
    106  H7Y      -28.8457  -41.3977   57.8922  H7Y    1  POPC         0.000000
    107  C38      -30.5867  -41.9887   56.8797  C38    1  POPC         0.000000
    108  H8X      -30.5634  -43.0307   57.2318  H8X    1  POPC         0.000000
    109  H8Y      -31.6256  -41.5911   57.0074  H8Y    1  POPC         0.000000
    110  C39      -29.8801  -41.7582   55.4579  C39    1  POPC         0.000000
    111  H9X      -29.9164  -40.6412   55.2009  H9X    1  POPC         0.000000
    112  H9Y      -28.8334  -42.2168   55.5543  H9Y    1  POPC         0.000000
    113 C310      -30.5291  -42.3449   54.2168 C310    1  POPC         0.000000
    114 H10X      -30.6637  -43.4318   54.3668 H10X    1  POPC         0.000000
    115 H10Y      -31.3787  -41.8054   54.0335 H10Y    1  POPC         0.000000
    116 C311      -29.6145  -42.0985   53.0140 C311    1  POPC         0.000000
    117 H11X      -29.2529  -41.0017   52.9611 H11X    1  POPC         0.000000
    118 H11Y      -28.7529  -42.7440   53.0964 H11Y    1  POPC         0.000000
    119 C312      -30.4132  -42.2511   51.6058 C312    1  POPC         0.000000
    120 H12X      -30.8958  -43.2379   51.6177 H12X    1  POPC         0.000000
    121 H12Y      -31.2628  -41.5346   51.6315 H12Y    1  POPC         0.000000
    122 C313      -29.4317  -42.0158   50.4071 C313    1  POPC         0.000000
    123 H13X      -29.3070  -40.9048   50.4541 H13X    1  POPC         0.000000
    124 H13Y      -28.4660  -42.4943   50.7324 H13Y    1  POPC         0.000000
    125 C314      -29.9615  -42.5085   49.0700 C314    1  POPC         0.000000
    126 H14X      -30.0212  -43.6655   49.0110 H14X    1  POPC         0.000000
    127 H14Y      -31.0092  -42.0219   49.0066 H14Y    1  POPC         0.000000
    128  H        -29.5358  -42.3775   48.1747    H    1  POPC         0.000000
    129  C        -32.7267  -45.1420   39.9473   C1    1  POPC         0.000000
    130  H        -33.6361  -43.9553   39.2790    H    1  POPC         0.000000
    131  H        -34.2905  -44.9572   40.3970    H    1  POPC         0.000000
    132  H        -32.4217  -45.0617   38.9983    H    1  POPC         0.000000
    133  H        -33.0761  -46.0636   40.1163    H    1  POPC         0.000000
    134  H        -31.9669  -44.9463   40.5673    H    1  POPC         0.000000
@<TRIPOS>BOND
    1     1     5  1
    2     1     3  1
    3     1     4  1
    4     1     2  1
    5     2     6  1
    6     2     7  1
    7     2    17  1
    8     3     8  1
    9     3    10  1
   10     3     9  1
   11     4    12  1
   12     4    13  1
   13     4    11  1
   14     5    15  1
   15     5    16  1
   16     5    14  1
   17    17    18  1
   18    17    23  1
   19    17    19  1
   20    20    22  1
   21    20    23  1
   22    20    24  1
   23    20    21  1
   24    24    25  1
   25    25    27  1
   26    25    28  1
   27    25    26  1
   28    28    30  1
   29    28    29  1
   30    28    36  1
   31    30    31  1
   32    31    33  1
   33    31    32  1
   34    33    35  1
   35    33    34  1
   36    33    45  1
   37    36    37  1
   38    36    38  1
   39    36    39  1
   40    39    40  1
   41    40    42  1
   42    40    41  1
   43    42    92  1
   44    42    44  1
   45    42    43  1
   46    45    48  1
   47    45    46  1
   48    45    47  1
   49    48    50  1
   50    48    49  1
   51    48    51  1
   52    51    52  1
   53    51    53  1
   54    51    54  1
   55    54    55  1
   56    54    56  1
   57    54    57  1
   58    57    60  1
   59    57    58  1
   60    57    59  1
   61    60    62  1
   62    60    61  1
   63    60    63  1
   64    63    65  2
   65    63    64  1
   66    65    66  1
   67    65    67  1
   68    67    69  1
   69    67    70  1
   70    67    68  1
   71    70    73  1
   72    70    72  1
   73    70    71  1
   74    73    74  1
   75    73    76  1
   76    73    75  1
   77    76    79  1
   78    76    78  1
   79    76    77  1
   80    79    80  1
   81    79    82  1
   82    79    81  1
   83    82    85  1
   84    82    83  1
   85    82    84  1
   86    85    86  1
   87    85    87  1
   88    85    88  1
   89    88    89  1
   90    88    91  1
   91    88    90  1
   92    89   129 -1
   93    89   130 -1
   94    89   131 -1
   95    92    94  1
   96    92    95  1
   97    92    93  1
   98    95    98  1
   99    95    97  1
  100    95    96  1
  101    98    99  1
  102    98   100  1
  103    98   101  1
  104   101   103  1
  105   101   104  1
  106   101   102  1
  107   104   107  1
  108   104   106  1
  109   104   105  1
  110   107   109  1
  111   107   110  1
  112   107   108  1
  113   110   113  1
  114   110   112  1
  115   110   111  1
  116   113   115  1
  117   113   114  1
  118   113   116  1
  119   116   119  1
  120   116   118  1
  121   116   117  1
  122   119   121  1
  123   119   120  1
  124   119   122  1
  125   122   125  1
  126   122   124  1
  127   122   123  1
  128   125   126  1
  129   125   127  1
  130   125   128 -1
  131   129   132 -1
  132   129   133 -1
  133   129   134 -1

@<TRIPOS>SUBSTRUCTURE
1 ****        1 TEMP                        0 ****  **** 0 ROOT
