@<TRIPOS>MOLECULE
generated by VMD
  130  129    1    0    0
SMALL
NO_CHARGES
****
Energy = 0

@<TRIPOS>ATOM
      1  N        -34.5647  -55.9302   60.0410    N    1  POPC         0.000000
      2  C11      -33.5675  -56.4860   61.0818  C11    1  POPC         0.000000
      3  C12      -34.1478  -54.6613   59.4865  C12    1  POPC         0.000000
      4  C13      -35.9555  -55.7260   60.6372  C13    1  POPC         0.000000
      5  C14      -34.8180  -56.8534   58.9322  C14    1  POPC         0.000000
      6  H11      -32.5415  -56.1151   60.6745  H11    1  POPC         0.000000
      7  H12      -33.5984  -57.5829   61.1021  H12    1  POPC         0.000000
      8  H21      -34.1676  -53.8511   60.1834  H21    1  POPC         0.000000
      9  H22      -33.1049  -54.6774   59.2623  H22    1  POPC         0.000000
     10  H23      -34.7171  -54.3974   58.5806  H23    1  POPC         0.000000
     11  H31      -35.8443  -55.0578   61.4381  H31    1  POPC         0.000000
     12  H32      -36.7087  -55.4302   59.9024  H32    1  POPC         0.000000
     13  H33      -36.3624  -56.6058   61.1696  H33    1  POPC         0.000000
     14  H41      -35.6162  -56.6515   58.1774  H41    1  POPC         0.000000
     15  H42      -33.8451  -57.0575   58.4590  H42    1  POPC         0.000000
     16  H43      -35.1279  -57.7873   59.3526  H43    1  POPC         0.000000
     17  C15      -33.6630  -55.8446   62.5597  C15    1  POPC         0.000000
     18  H51      -34.6489  -56.2705   62.8950  H51    1  POPC         0.000000
     19  H52      -32.7569  -56.1465   63.1376  H52    1  POPC         0.000000
     20  P1       -34.4787  -53.7023   63.5864   P1    1  POPC         0.000000
     21  O3       -34.3053  -54.0811   64.9875   O3    1  POPC         0.000000
     22  O4       -35.8469  -53.7635   63.0589   O4    1  POPC         0.000000
     23  O1       -33.5470  -54.4716   62.5554   O1    1  POPC         0.000000
     24  O2       -33.9498  -52.2155   63.3089   O2    1  POPC         0.000000
     25  C1       -33.8230  -51.6517   62.0398   C1    1  POPC         0.000000
     26  HA       -32.8102  -51.8708   61.6236   HA    1  POPC         0.000000
     27  HB       -34.5752  -51.9898   61.3341   HB    1  POPC         0.000000
     28  C2       -33.9100  -50.0777   62.0444   C2    1  POPC         0.000000
     29  HS       -34.8179  -49.8225   62.5507   HS    1  POPC         0.000000
     30  O21      -33.8873  -49.4850   60.6693  O21    1  POPC         0.000000
     31  C21      -34.1514  -48.1861   60.5621  C21    1  POPC         0.000000
     32  O22      -34.6171  -47.4828   61.4661  O22    1  POPC         0.000000
     33  C22      -33.5457  -47.6664   59.2438  C22    1  POPC         0.000000
     34  H2R      -32.5677  -47.2593   59.3675  H2R    1  POPC         0.000000
     35  H2S      -33.5569  -48.3825   58.4460  H2S    1  POPC         0.000000
     36  C3       -32.7558  -49.4076   62.8880   C3    1  POPC         0.000000
     37  HX       -32.7978  -48.3215   62.7408   HX    1  POPC         0.000000
     38  HY       -32.9835  -49.6583   63.9242   HY    1  POPC         0.000000
     39  O31      -31.5169  -49.9866   62.5018  O31    1  POPC         0.000000
     40  C31      -30.4927  -49.6056   63.1804  C31    1  POPC         0.000000
     41  O32      -30.5165  -48.7513   64.0433  O32    1  POPC         0.000000
     42  C32      -29.2278  -50.3607   62.6753  C32    1  POPC         0.000000
     43  H2X      -28.3577  -50.2666   63.3730  H2X    1  POPC         0.000000
     44  H2Y      -29.4739  -51.4207   62.6486  H2Y    1  POPC         0.000000
     45  C23      -34.4598  -46.4994   58.7009  C23    1  POPC         0.000000
     46  H3R      -35.4049  -46.8915   58.3762  H3R    1  POPC         0.000000
     47  H3S      -34.6786  -45.6873   59.4037  H3S    1  POPC         0.000000
     48  C24      -33.9543  -46.0367   57.3016  C24    1  POPC         0.000000
     49  H4R      -32.9341  -45.7458   57.5053  H4R    1  POPC         0.000000
     50  H4S      -33.8454  -46.9039   56.6328  H4S    1  POPC         0.000000
     51  C25      -34.6434  -44.9499   56.5046  C25    1  POPC         0.000000
     52  H5R      -35.6945  -45.2570   56.3369  H5R    1  POPC         0.000000
     53  H5S      -34.7172  -43.9958   57.1433  H5S    1  POPC         0.000000
     54  C26      -34.0167  -44.5842   55.1633  C26    1  POPC         0.000000
     55  H6R      -33.0317  -44.1462   55.3769  H6R    1  POPC         0.000000
     56  H6S      -33.9179  -45.5374   54.5325  H6S    1  POPC         0.000000
     57  C27      -34.7619  -43.5334   54.3252  C27    1  POPC         0.000000
     58  H7R      -35.6868  -44.0116   53.8852  H7R    1  POPC         0.000000
     59  H7S      -35.1592  -42.6565   54.9853  H7S    1  POPC         0.000000
     60  C28      -33.8470  -42.7982   53.3203  C28    1  POPC         0.000000
     61  H8R      -33.1682  -42.1830   54.0473  H8R    1  POPC         0.000000
     62  H8S      -33.2130  -43.4741   52.6463  H8S    1  POPC         0.000000
     63  C29      -34.7023  -41.8524   52.4212  C29    1  POPC         0.000000
     64  H91      -35.1394  -40.9425   52.9042  H91    1  POPC         0.000000
     65 C210      -34.8672  -41.8795   51.0362 C210    1  POPC         0.000000
     66 H101      -35.5152  -41.0935   50.7152 H101    1  POPC         0.000000
     67 C211      -34.3222  -42.8465   50.0013 C211    1  POPC         0.000000
     68 H11R      -33.5403  -43.5885   50.4303 H11R    1  POPC         0.000000
     69 H11S      -35.1123  -43.4915   49.7683 H11S    1  POPC         0.000000
     70 C212      -33.6282  -42.2006   48.8643 C212    1  POPC         0.000000
     71 H12R      -32.7332  -41.6546   49.2103 H12R    1  POPC         0.000000
     72 H12S      -33.3242  -42.9286   48.1193 H12S    1  POPC         0.000000
     73 C213      -34.3951  -41.1796   48.0542 C213    1  POPC         0.000000
     74 H13R      -35.2611  -41.6696   47.5772 H13R    1  POPC         0.000000
     75 H13S      -34.7411  -40.2916   48.6702 H13S    1  POPC         0.000000
     76 C214      -33.4821  -40.5567   47.0152 C214    1  POPC         0.000000
     77 H14R      -32.7391  -40.0297   47.5632 H14R    1  POPC         0.000000
     78 H14S      -33.0661  -41.3497   46.4343 H14S    1  POPC         0.000000
     79 C215      -34.1690  -39.6417   45.9992 C215    1  POPC         0.000000
     80 H15R      -34.9431  -40.1947   45.4133 H15R    1  POPC         0.000000
     81 H15S      -34.6309  -38.9426   46.7011 H15S    1  POPC         0.000000
     82 C216      -33.1970  -38.9100   45.0070 C216    1  POPC         0.000000
     83 H16R      -32.7598  -38.0270   45.4999 H16R    1  POPC         0.000000
     84 H16S      -32.3831  -39.5731   44.6700 H16S    1  POPC         0.000000
     85  H        -33.4138  -38.5125   44.1154    H    1  POPC         0.000000
     86  H        -29.3206  -42.1916   45.7143    H    1  POPC         0.000000
     87  C33      -28.7862  -49.9481   61.2381  C33    1  POPC         0.000000
     88  H3X      -28.3642  -48.9180   61.3517  H3X    1  POPC         0.000000
     89  H3Y      -27.8583  -50.5181   60.9419  H3Y    1  POPC         0.000000
     90  C34      -29.8166  -49.9762   60.0943  C34    1  POPC         0.000000
     91  H4X      -30.3116  -50.9872   60.0257  H4X    1  POPC         0.000000
     92  H4Y      -30.6225  -49.1772   60.2674  H4Y    1  POPC         0.000000
     93  C35      -29.1629  -49.4895   58.7840  C35    1  POPC         0.000000
     94  H5X      -28.5288  -48.6195   58.9297  H5X    1  POPC         0.000000
     95  H5Y      -28.4340  -50.2526   58.4030  H5Y    1  POPC         0.000000
     96  C36      -30.1491  -49.1317   57.6573  C36    1  POPC         0.000000
     97  H6X      -30.6633  -50.1088   57.3566  H6X    1  POPC         0.000000
     98  H6Y      -30.9691  -48.4377   58.0323  H6Y    1  POPC         0.000000
     99  C37      -29.6225  -48.4680   56.4410  C37    1  POPC         0.000000
    100  H7X      -29.0804  -47.5340   56.7677  H7X    1  POPC         0.000000
    101  H7Y      -28.8627  -49.0272   55.8989  H7Y    1  POPC         0.000000
    102  C38      -30.5568  -47.9032   55.3761  C38    1  POPC         0.000000
    103  H8X      -31.1848  -48.7723   55.1255  H8X    1  POPC         0.000000
    104  H8Y      -31.1506  -47.2101   56.0251  H8Y    1  POPC         0.000000
    105  C39      -29.7901  -47.2615   54.1217  C39    1  POPC         0.000000
    106  H9X      -29.1320  -46.3975   54.4904  H9X    1  POPC         0.000000
    107  H9Y      -29.2373  -48.1327   53.6188  H9Y    1  POPC         0.000000
    108 C310      -30.6024  -46.5508   53.0548 C310    1  POPC         0.000000
    109 H10X      -31.3725  -47.2458   52.6722 H10X    1  POPC         0.000000
    110 H10Y      -30.9452  -45.6777   53.4637 H10Y    1  POPC         0.000000
    111 C311      -29.6697  -46.1360   51.9135 C311    1  POPC         0.000000
    112 H11X      -28.7166  -45.6080   52.3031 H11X    1  POPC         0.000000
    113 H11Y      -29.3768  -47.0202   51.3676 H11Y    1  POPC         0.000000
    114 C312      -30.3319  -44.9802   50.9814 C312    1  POPC         0.000000
    115 H12X      -31.3110  -45.3553   50.6557 H12X    1  POPC         0.000000
    116 H12Y      -30.5757  -44.1231   51.6463 H12Y    1  POPC         0.000000
    117 C313      -29.3522  -44.6086   49.8160 C313    1  POPC         0.000000
    118 H13X      -28.5840  -44.0125   50.3707 H13X    1  POPC         0.000000
    119 H13Y      -28.8873  -45.5876   49.5132 H13Y    1  POPC         0.000000
    120 C314      -30.0095  -43.8418   48.6791 C314    1  POPC         0.000000
    121 H14X      -30.7517  -44.4918   48.0704 H14X    1  POPC         0.000000
    122 H14Y      -30.5453  -42.9726   49.2240 H14Y    1  POPC         0.000000
    123 C315      -29.0117  -43.3270   47.7307 C315    1  POPC         0.000000
    124 H15X      -28.3556  -42.5659   48.2513 H15X    1  POPC         0.000000
    125 H15Y      -28.4019  -44.1531   47.4227 H15Y    1  POPC         0.000000
    126 C316      -29.6550  -42.5252   46.5957 C316    1  POPC         0.000000
    127 H16X      -29.8299  -41.5112   46.9205 H16X    1  POPC         0.000000
    128 H16Z      -30.5252  -43.1383   46.1950 H16Z    1  POPC         0.000000
    129  H        -35.6727  -41.6113   52.4327    H    1  POPC         0.000000
    130  H        -35.2351  -40.9657   50.8641    H    1  POPC         0.000000
@<TRIPOS>BOND
    1     1     5  1
    2     1     3  1
    3     1     4  1
    4     1     2  1
    5     2     6  1
    6     2     7  1
    7     2    17  1
    8     3     8  1
    9     3    10  1
   10     3     9  1
   11     4    12  1
   12     4    13  1
   13     4    11  1
   14     5    15  1
   15     5    16  1
   16     5    14  1
   17    17    18  1
   18    17    23  1
   19    17    19  1
   20    20    22  1
   21    20    23  1
   22    20    24  1
   23    20    21  1
   24    24    25  1
   25    25    27  1
   26    25    28  1
   27    25    26  1
   28    28    30  1
   29    28    29  1
   30    28    36  1
   31    30    31  1
   32    31    33  1
   33    31    32  1
   34    33    35  1
   35    33    34  1
   36    33    45  1
   37    36    37  1
   38    36    38  1
   39    36    39  1
   40    39    40  1
   41    40    42  1
   42    40    41  1
   43    42    87  1
   44    42    44  1
   45    42    43  1
   46    45    48  1
   47    45    46  1
   48    45    47  1
   49    48    50  1
   50    48    49  1
   51    48    51  1
   52    51    52  1
   53    51    53  1
   54    51    54  1
   55    54    55  1
   56    54    56  1
   57    54    57  1
   58    57    60  1
   59    57    58  1
   60    57    59  1
   61    60    62  1
   62    60    61  1
   63    60    63  1
   64    63    65  1
   65    63    64  1
   66    63   129  1
   67    65    66  1
   68    65    67  1
   69    65   130  1
   70    67    69  1
   71    67    70  1
   72    67    68  1
   73    70    73  1
   74    70    72  1
   75    70    71  1
   76    73    74  1
   77    73    76  1
   78    73    75  1
   79    76    79  1
   80    76    78  1
   81    76    77  1
   82    79    80  1
   83    79    82  1
   84    79    81  1
   85    82    83  1
   86    82    84  1
   87    82    85 -1
   88    86   126 -1
   89    87    89  1
   90    87    90  1
   91    87    88  1
   92    90    93  1
   93    90    92  1
   94    90    91  1
   95    93    94  1
   96    93    95  1
   97    93    96  1
   98    96    98  1
   99    96    99  1
  100    96    97  1
  101    99   102  1
  102    99   101  1
  103    99   100  1
  104   102   104  1
  105   102   105  1
  106   102   103  1
  107   105   108  1
  108   105   107  1
  109   105   106  1
  110   108   110  1
  111   108   109  1
  112   108   111  1
  113   111   114  1
  114   111   113  1
  115   111   112  1
  116   114   116  1
  117   114   115  1
  118   114   117  1
  119   117   120  1
  120   117   119  1
  121   117   118  1
  122   120   121  1
  123   120   123  1
  124   120   122  1
  125   123   126  1
  126   123   124  1
  127   123   125  1
  128   126   128  1
  129   126   127  1

@<TRIPOS>SUBSTRUCTURE
1 ****        1 TEMP                        0 ****  **** 0 ROOT
