@<TRIPOS>MOLECULE
generated by VMD
  126  125    1    0    0
SMALL
NO_CHARGES
****
Energy = 0

@<TRIPOS>ATOM
      1  N        -34.5661  -55.9204   60.0532    N    1  POPC         0.000000
      2  C11      -33.5686  -56.4758   61.0939  C11    1  POPC         0.000000
      3  C12      -34.1488  -54.6522   59.4972  C12    1  POPC         0.000000
      4  C13      -35.9564  -55.7148   60.6501  C13    1  POPC         0.000000
      5  C14      -34.8206  -56.8444   58.9454  C14    1  POPC         0.000000
      6  H11      -32.5426  -56.1059   60.6856  H11    1  POPC         0.000000
      7  H12      -33.6001  -57.5726   61.1152  H12    1  POPC         0.000000
      8  H21      -34.1677  -53.8414   60.1934  H21    1  POPC         0.000000
      9  H22      -33.1060  -54.6691   59.2724  H22    1  POPC         0.000000
     10  H23      -34.7185  -54.3888   58.5915  H23    1  POPC         0.000000
     11  H31      -35.8443  -55.0459   61.4503  H31    1  POPC         0.000000
     12  H32      -36.7099  -55.4193   59.9155  H32    1  POPC         0.000000
     13  H33      -36.3635  -56.5939   61.1835  H33    1  POPC         0.000000
     14  H41      -35.6192  -56.6428   58.1909  H41    1  POPC         0.000000
     15  H42      -33.8481  -57.0495   58.4718  H42    1  POPC         0.000000
     16  H43      -35.1308  -57.7778   59.3669  H43    1  POPC         0.000000
     17  C15      -33.6628  -55.8330   62.5712  C15    1  POPC         0.000000
     18  H51      -34.6487  -56.2580   62.9075  H51    1  POPC         0.000000
     19  H52      -32.7565  -56.1348   63.1489  H52    1  POPC         0.000000
     20  P1       -34.4766  -53.6893   63.5965   P1    1  POPC         0.000000
     21  O3       -34.3025  -54.0668   64.9978   O3    1  POPC         0.000000
     22  O4       -35.8451  -53.7501   63.0699   O4    1  POPC         0.000000
     23  O1       -33.5460  -54.4600   62.5656   O1    1  POPC         0.000000
     24  O2       -33.9470  -52.2030   63.3173   O2    1  POPC         0.000000
     25  C1       -33.8207  -51.6404   62.0476   C1    1  POPC         0.000000
     26  HA       -32.8082  -51.8605   61.6309   HA    1  POPC         0.000000
     27  HB       -34.5735  -51.9788   61.3426   HB    1  POPC         0.000000
     28  C2       -33.9067  -50.0664   62.0508   C2    1  POPC         0.000000
     29  HS       -34.8142  -49.8102   62.5574   HS    1  POPC         0.000000
     30  O21      -33.8846  -49.4750   60.6751  O21    1  POPC         0.000000
     31  C21      -34.1480  -48.1760   60.5668  C21    1  POPC         0.000000
     32  O22      -34.6127  -47.4716   61.4705  O22    1  POPC         0.000000
     33  C22      -33.5428  -47.6579   59.2477  C22    1  POPC         0.000000
     34  H2R      -32.5645  -47.2513   59.3704  H2R    1  POPC         0.000000
     35  H2S      -33.5549  -48.3747   58.4506  H2S    1  POPC         0.000000
     36  C3       -32.7516  -49.3962   62.8930   C3    1  POPC         0.000000
     37  HX       -32.7931  -48.3102   62.7448   HX    1  POPC         0.000000
     38  HY       -32.9788  -49.6458   63.9296   HY    1  POPC         0.000000
     39  O31      -31.5133  -49.9763   62.5066  O31    1  POPC         0.000000
     40  C31      -30.4885  -49.5952   63.1842  C31    1  POPC         0.000000
     41  O32      -30.5112  -48.7401   64.0463  O32    1  POPC         0.000000
     42  C32      -29.2243  -50.3515   62.6790  C32    1  POPC         0.000000
     43  H2X      -28.3537  -50.2573   63.3761  H2X    1  POPC         0.000000
     44  H2Y      -29.4710  -51.4114   62.6534  H2Y    1  POPC         0.000000
     45  C23      -34.4566  -46.4909   58.7043  C23    1  POPC         0.000000
     46  H3R      -35.4021  -46.8827   58.3805  H3R    1  POPC         0.000000
     47  H3S      -34.6745  -45.6780   59.4065  H3S    1  POPC         0.000000
     48  C24      -33.9517  -46.0298   57.3042  C24    1  POPC         0.000000
     49  H4R      -32.9312  -45.7393   57.5070  H4R    1  POPC         0.000000
     50  H4S      -33.8437  -46.8976   56.6362  H4S    1  POPC         0.000000
     51  C25      -34.6406  -44.9433   56.5067  C25    1  POPC         0.000000
     52  H5R      -35.6920  -45.2499   56.3399  H5R    1  POPC         0.000000
     53  H5S      -34.7135  -43.9886   57.1445  H5S    1  POPC         0.000000
     54  C26      -34.0146  -44.5792   55.1646  C26    1  POPC         0.000000
     55  H6R      -33.0292  -44.1416   55.3772  H6R    1  POPC         0.000000
     56  H6S      -33.9167  -45.5331   54.5347  H6S    1  POPC         0.000000
     57  C27      -34.7597  -43.5287   54.3260  C27    1  POPC         0.000000
     58  H7R      -35.6851  -44.0068   53.8871  H7R    1  POPC         0.000000
     59  H7S      -35.1561  -42.6510   54.9856  H7S    1  POPC         0.000000
     60  C28      -33.8450  -42.7950   53.3199  C28    1  POPC         0.000000
     61  H8R      -33.1654  -42.1795   54.0459  H8R    1  POPC         0.000000
     62  H8S      -33.2118  -43.4719   52.6461  H8S    1  POPC         0.000000
     63  C29      -34.7003  -41.8495   52.4204  C29    1  POPC         0.000000
     64  H91      -35.1368  -40.9391   52.9029  H91    1  POPC         0.000000
     65 C210      -34.8659  -41.8777   51.0355 C210    1  POPC         0.000000
     66 H101      -35.5137  -41.0917   50.7142 H101    1  POPC         0.000000
     67 C211      -34.3218  -42.8457   50.0011 C211    1  POPC         0.000000
     68 H11R      -33.5400  -43.5877   50.4304 H11R    1  POPC         0.000000
     69 H11S      -35.1123  -43.4906   49.7690 H11S    1  POPC         0.000000
     70 C212      -33.6281  -42.2010   48.8633 C212    1  POPC         0.000000
     71 H12R      -32.7327  -41.6551   49.2084 H12R    1  POPC         0.000000
     72 H12S      -33.3247  -42.9297   48.1187 H12S    1  POPC         0.000000
     73 C213      -34.3949  -41.1803   48.0527 C213    1  POPC         0.000000
     74 H13R      -35.2612  -41.6704   47.5763 H13R    1  POPC         0.000000
     75 H13S      -34.7405  -40.2918   48.6683 H13S    1  POPC         0.000000
     76 C214      -33.4820  -40.5584   47.0131 C214    1  POPC         0.000000
     77 H14R      -32.7387  -40.0312   47.5605 H14R    1  POPC         0.000000
     78 H14S      -33.0664  -41.3519   46.4326 H14S    1  POPC         0.000000
     79 C215      -34.1690  -39.6438   45.9967 C215    1  POPC         0.000000
     80 H15R      -34.9434  -40.1970   45.4114 H15R    1  POPC         0.000000
     81 H15S      -34.6305  -38.9441   46.6983 H15S    1  POPC         0.000000
     82 C216      -33.1971  -38.9131   45.0037 C216    1  POPC         0.000000
     83 H16R      -32.7595  -38.0299   45.4959 H16R    1  POPC         0.000000
     84 H16S      -32.3835  -39.5766   44.6669 H16S    1  POPC         0.000000
     85  H        -33.4140  -38.5162   44.1118    H    1  POPC         0.000000
     86  C33      -28.7834  -49.9405   61.2411  C33    1  POPC         0.000000
     87  H3X      -28.3607  -48.9106   61.3535  H3X    1  POPC         0.000000
     88  H3Y      -27.8560  -50.5113   60.9449  H3Y    1  POPC         0.000000
     89  C34      -29.8145  -49.9691   60.0980  C34    1  POPC         0.000000
     90  H4X      -30.3101  -50.9799   60.0306  H4X    1  POPC         0.000000
     91  H4Y      -30.6198  -49.1695   60.2709  H4Y    1  POPC         0.000000
     92  C35      -29.1613  -49.4840   58.7868  C35    1  POPC         0.000000
     93  H5X      -28.5266  -48.6142   58.9313  H5X    1  POPC         0.000000
     94  H5Y      -28.4331  -50.2478   58.4061  H5Y    1  POPC         0.000000
     95  C36      -30.1480  -49.1266   57.6604  C36    1  POPC         0.000000
     96  H6X      -30.6630  -50.1037   57.3610  H6X    1  POPC         0.000000
     97  H6Y      -30.9674  -48.4318   58.0353  H6Y    1  POPC         0.000000
     98  C37      -29.6218  -48.4644   56.4432  C37    1  POPC         0.000000
     99  H7X      -29.0790  -47.5304   56.7687  H7X    1  POPC         0.000000
    100  H7Y      -28.8627  -49.0245   55.9011  H7Y    1  POPC         0.000000
    101  C38      -30.5565  -47.9000   55.3783  C38    1  POPC         0.000000
    102  H8X      -31.1851  -48.7690   55.1289  H8X    1  POPC         0.000000
    103  H8Y      -31.1495  -47.2060   56.0271  H8Y    1  POPC         0.000000
    104  C39      -29.7902  -47.2599   54.1229  C39    1  POPC         0.000000
    105  H9X      -29.1313  -46.3960   54.4904  H9X    1  POPC         0.000000
    106 C310      -30.6027  -46.5497   53.0558 C310    1  POPC         0.000000
    107 H10X      -31.3732  -47.2448   52.6741 H10X    1  POPC         0.000000
    108 C311      -29.6704  -46.1360   51.9138 C311    1  POPC         0.000000
    109 H11X      -28.7168  -45.6085   52.3026 H11X    1  POPC         0.000000
    110 H11Y      -29.3784  -47.0207   51.3682 H11Y    1  POPC         0.000000
    111 C312      -30.3324  -44.9802   50.9816 C312    1  POPC         0.000000
    112 H12X      -31.3119  -45.3549   50.6566 H12X    1  POPC         0.000000
    113 H12Y      -30.5753  -44.1227   51.6462 H12Y    1  POPC         0.000000
    114 C313      -29.3531  -44.6098   49.8154 C313    1  POPC         0.000000
    115 H13X      -28.5842  -44.0139   50.3694 H13X    1  POPC         0.000000
    116 H13Y      -28.8890  -45.5892   49.5128 H13Y    1  POPC         0.000000
    117 C314      -30.0106  -43.8431   48.6786 C314    1  POPC         0.000000
    118 H14X      -30.7535  -44.4929   48.0706 H14X    1  POPC         0.000000
    119 H14Y      -30.5455  -42.9733   49.2234 H14Y    1  POPC         0.000000
    120 C315      -29.0130  -43.3293   47.7294 C315    1  POPC         0.000000
    121 H15X      -28.3561  -42.5684   48.2493 H15X    1  POPC         0.000000
    122 H15Y      -28.4039  -44.1560   47.4214 H15Y    1  POPC         0.000000
    123 C316      -29.6564  -42.5277   46.5944 C316    1  POPC         0.000000
    124 H16X      -29.8309  -41.5135   46.9189 H16X    1  POPC         0.000000
    125  H        -29.3221  -42.1945   45.7128    H    1  POPC         0.000000
    126 H16Z      -30.5269  -43.1406   46.1941 H16Z    1  POPC         0.000000
@<TRIPOS>BOND
    1     1     5  1
    2     1     3  1
    3     1     4  1
    4     1     2  1
    5     2     6  1
    6     2     7  1
    7     2    17  1
    8     3     8  1
    9     3    10  1
   10     3     9  1
   11     4    12  1
   12     4    13  1
   13     4    11  1
   14     5    15  1
   15     5    16  1
   16     5    14  1
   17    17    18  1
   18    17    23  1
   19    17    19  1
   20    20    22  1
   21    20    23  1
   22    20    24  1
   23    20    21  1
   24    24    25  1
   25    25    27  1
   26    25    28  1
   27    25    26  1
   28    28    30  1
   29    28    29  1
   30    28    36  1
   31    30    31  1
   32    31    33  1
   33    31    32  1
   34    33    35  1
   35    33    34  1
   36    33    45  1
   37    36    37  1
   38    36    38  1
   39    36    39  1
   40    39    40  1
   41    40    42  1
   42    40    41  1
   43    42    86  1
   44    42    44  1
   45    42    43  1
   46    45    48  1
   47    45    46  1
   48    45    47  1
   49    48    50  1
   50    48    49  1
   51    48    51  1
   52    51    52  1
   53    51    53  1
   54    51    54  1
   55    54    55  1
   56    54    56  1
   57    54    57  1
   58    57    60  1
   59    57    58  1
   60    57    59  1
   61    60    62  1
   62    60    61  1
   63    60    63  1
   64    63    65  2
   65    63    64  1
   66    65    66  1
   67    65    67  1
   68    67    69  1
   69    67    70  1
   70    67    68  1
   71    70    73  1
   72    70    72  1
   73    70    71  1
   74    73    74  1
   75    73    76  1
   76    73    75  1
   77    76    79  1
   78    76    78  1
   79    76    77  1
   80    79    80  1
   81    79    82  1
   82    79    81  1
   83    82    83  1
   84    82    84  1
   85    82    85 -1
   86    86    88  1
   87    86    89  1
   88    86    87  1
   89    89    92  1
   90    89    91  1
   91    89    90  1
   92    92    93  1
   93    92    94  1
   94    92    95  1
   95    95    97  1
   96    95    98  1
   97    95    96  1
   98    98   101  1
   99    98   100  1
  100    98    99  1
  101   101   103  1
  102   101   104  1
  103   101   102  1
  104   104   106  2
  105   104   105  1
  106   106   107  1
  107   106   108  1
  108   108   111  1
  109   108   110  1
  110   108   109  1
  111   111   113  1
  112   111   112  1
  113   111   114  1
  114   114   117  1
  115   114   116  1
  116   114   115  1
  117   117   118  1
  118   117   120  1
  119   117   119  1
  120   120   123  1
  121   120   121  1
  122   120   122  1
  123   123   126  1
  124   123   124  1
  125   123   125 -1

@<TRIPOS>SUBSTRUCTURE
1 ****        1 TEMP                        0 ****  **** 0 ROOT
