@<TRIPOS>MOLECULE
generated by VMD
  157  156    1    0    0
SMALL
NO_CHARGES
****
Energy = 0

@<TRIPOS>ATOM
      1  N        -34.5594  -55.9343   60.0394    N    1  POPC         0.000000
      2  C11      -33.5622  -56.4880   61.0824  C11    1  POPC         0.000000
      3  H12      -34.1438  -54.6641   59.4865  H12    1  POPC         0.000000
      4  H13      -35.9504  -55.7307   60.6355  H13    1  POPC         0.000000
      5  H14      -34.8101  -56.8573   58.9314  H14    1  POPC         0.000000
      6  H16      -32.5363  -56.1166   60.6764  H16    1  POPC         0.000000
      7  H17      -33.5918  -57.5850   61.1024  H17    1  POPC         0.000000
      8  C15      -33.6604  -55.8471   62.5594  C15    1  POPC         0.000000
      9  H51      -34.6452  -56.2744   62.8944  H51    1  POPC         0.000000
     10  H52      -32.7543  -56.1478   63.1384  H52    1  POPC         0.000000
     11  P1       -34.4801  -53.7054   63.5855   P1    1  POPC         0.000000
     12  O3       -34.3070  -54.0844   64.9865   O3    1  POPC         0.000000
     13  O4       -35.8471  -53.7678   63.0565   O4    1  POPC         0.000000
     14  O1       -33.5458  -54.4740   62.5555   O1    1  POPC         0.000000
     15  O2       -33.9516  -52.2182   63.3086   O2    1  POPC         0.000000
     16  C1       -33.8238  -51.6541   62.0386   C1    1  POPC         0.000000
     17  HA       -32.8107  -51.8727   61.6246   HA    1  POPC         0.000000
     18  HB       -34.5757  -51.9933   61.3326   HB    1  POPC         0.000000
     19  C2       -33.9123  -50.0801   62.0437   C2    1  POPC         0.000000
     20  HS       -34.8214  -49.8264   62.5497   HS    1  POPC         0.000000
     21  O21      -33.8895  -49.4871   60.6687  O21    1  POPC         0.000000
     22  C21      -34.1549  -48.1891   60.5607  C21    1  POPC         0.000000
     23  O22      -34.6222  -47.4863   61.4648  O22    1  POPC         0.000000
     24  C22      -33.5481  -47.6689   59.2438  C22    1  POPC         0.000000
     25  H2R      -32.5703  -47.2606   59.3678  H2R    1  POPC         0.000000
     26  H2S      -33.5579  -48.3849   58.4447  H2S    1  POPC         0.000000
     27  C3       -32.7605  -49.4098   62.8887   C3    1  POPC         0.000000
     28  HX       -32.8029  -48.3238   62.7417   HX    1  POPC         0.000000
     29  HY       -32.9894  -49.6609   63.9247   HY    1  POPC         0.000000
     30  O31      -31.5193  -49.9873   62.5037  O31    1  POPC         0.000000
     31  C31      -30.4985  -49.6050   63.1837  C31    1  POPC         0.000000
     32  O32      -30.5237  -48.7501   64.0457  O32    1  POPC         0.000000
     33  C32      -29.2312  -50.3586   62.6806  C32    1  POPC         0.000000
     34  H2X      -28.3622  -50.2633   63.3786  H2X    1  POPC         0.000000
     35  H2Y      -29.4769  -51.4187   62.6536  H2Y    1  POPC         0.000000
     36  C23      -34.4624  -46.5032   58.6998  C23    1  POPC         0.000000
     37  H3R      -35.4073  -46.8955   58.3738  H3R    1  POPC         0.000000
     38  H3S      -34.6837  -45.6903   59.4029  H3S    1  POPC         0.000000
     39  C24      -33.9556  -46.0399   57.3008  C24    1  POPC         0.000000
     40  H4R      -32.9367  -45.7486   57.5058  H4R    1  POPC         0.000000
     41  H4S      -33.8463  -46.9069   56.6318  H4S    1  POPC         0.000000
     42  C25      -34.6449  -44.9531   56.5039  C25    1  POPC         0.000000
     43  H5R      -35.6948  -45.2615   56.3349  H5R    1  POPC         0.000000
     44  H5S      -34.7193  -43.9992   57.1429  H5S    1  POPC         0.000000
     45  C26      -34.0181  -44.5869   55.1629  C26    1  POPC         0.000000
     46  H6R      -33.0332  -44.1496   55.3769  H6R    1  POPC         0.000000
     47  H6S      -33.9178  -45.5398   54.5319  H6S    1  POPC         0.000000
     48  C27      -34.7624  -43.5361   54.3239  C27    1  POPC         0.000000
     49  H7R      -35.6863  -44.0144   53.8829  H7R    1  POPC         0.000000
     50  H7S      -35.1597  -42.6593   54.9830  H7S    1  POPC         0.000000
     51  C28      -33.8467  -42.8007   53.3200  C28    1  POPC         0.000000
     52  H8R      -33.1689  -42.1866   54.0460  H8R    1  POPC         0.000000
     53  H8S      -33.2125  -43.4765   52.6459  H8S    1  POPC         0.000000
     54  C29      -34.7020  -41.8550   52.4200  C29    1  POPC         0.000000
     55  H91      -35.1393  -40.9462   52.9030  H91    1  POPC         0.000000
     56 C210      -34.8670  -41.8820   51.0350 C210    1  POPC         0.000000
     57 H101      -35.5140  -41.0960   50.7130 H101    1  POPC         0.000000
     58 C211      -34.3210  -42.8500   50.0000 C211    1  POPC         0.000000
     59 H11R      -33.5400  -43.5910   50.4300 H11R    1  POPC         0.000000
     60 H11S      -35.1110  -43.4950   49.7670 H11S    1  POPC         0.000000
     61 C212      -33.6270  -42.2040   48.8630 C212    1  POPC         0.000000
     62 H12R      -32.7320  -41.6580   49.2090 H12R    1  POPC         0.000000
     63 H12S      -33.3230  -42.9320   48.1180 H12S    1  POPC         0.000000
     64 C213      -34.3950  -41.1830   48.0530 C213    1  POPC         0.000000
     65 H13R      -35.2600  -41.6730   47.5760 H13R    1  POPC         0.000000
     66 H13S      -34.7410  -40.2950   48.6690 H13S    1  POPC         0.000000
     67 C214      -33.4810  -40.5600   47.0140 C214    1  POPC         0.000000
     68 H14R      -32.7390  -40.0330   47.5620 H14R    1  POPC         0.000000
     69 H14S      -33.0650  -41.3540   46.4330 H14S    1  POPC         0.000000
     70 C215      -34.1680  -39.6450   45.9970 C215    1  POPC         0.000000
     71 H15R      -34.9420  -40.1980   45.4110 H15R    1  POPC         0.000000
     72 H15S      -34.6310  -38.9460   46.6990 H15S    1  POPC         0.000000
     73 C216      -33.1970  -38.9130   45.0060 C216    1  POPC         0.000000
     74 H16R      -32.7590  -38.0310   45.4980 H16R    1  POPC         0.000000
     75 H16S      -32.3820  -39.5770   44.6690 H16S    1  POPC         0.000000
     76 C217      -33.8740  -38.3710   43.7370 C217    1  POPC         0.000000
     77 H17R      -34.6490  -39.1280   43.3170 H17R    1  POPC         0.000000
     78 H17S      -34.4030  -37.3890   44.0400 H17S    1  POPC         0.000000
     79 C218      -32.9230  -38.1240   42.6040 C218    1  POPC         0.000000
     80 C18R      -33.5560  -37.9090   41.7130    C    1  POPC         0.000000
     81 H18S      -32.2730  -37.3020   42.8450 H18S    1  POPC         0.000000
     82 H18T      -32.4140  -39.0840   42.4510 H18T    1  POPC         0.000000
     83  C33      -28.7874  -49.9454   61.2436  C33    1  POPC         0.000000
     84  H3X      -28.3687  -48.9152   61.3567  H3X    1  POPC         0.000000
     85  H3Y      -27.8592  -50.5142   60.9486  H3Y    1  POPC         0.000000
     86  C34      -29.8184  -49.9747   60.0976  C34    1  POPC         0.000000
     87  H4X      -30.3110  -50.9868   60.0286  H4X    1  POPC         0.000000
     88  H4Y      -30.6246  -49.1760   60.2697  H4Y    1  POPC         0.000000
     89  C35      -29.1625  -49.4864   58.7887  C35    1  POPC         0.000000
     90  H5X      -28.5298  -48.6162   58.9347  H5X    1  POPC         0.000000
     91  H5Y      -28.4323  -50.2492   58.4086  H5Y    1  POPC         0.000000
     92  C36      -30.1486  -49.1317   57.6607  C36    1  POPC         0.000000
     93  H6X      -30.6613  -50.1089   57.3596  H6X    1  POPC         0.000000
     94  H6Y      -30.9689  -48.4380   58.0357  H6Y    1  POPC         0.000000
     95  C37      -29.6209  -48.4665   56.4447  C37    1  POPC         0.000000
     96  H7X      -29.0802  -47.5313   56.7727  H7X    1  POPC         0.000000
     97  H7Y      -28.8597  -49.0242   55.9037  H7Y    1  POPC         0.000000
     98  C38      -30.5551  -47.9037   55.3787  C38    1  POPC         0.000000
     99  H8X      -31.1818  -48.7729   55.1277  H8X    1  POPC         0.000000
    100  H8Y      -31.1502  -47.2110   56.0268  H8Y    1  POPC         0.000000
    101  C39      -29.7873  -47.2604   54.1258  C39    1  POPC         0.000000
    102  H9X      -29.1305  -46.3962   54.4948  H9X    1  POPC         0.000000
    103  H9Y      -29.2340  -48.1312   53.6237  H9Y    1  POPC         0.000000
    104 C310      -30.5994  -46.5507   53.0578 C310    1  POPC         0.000000
    105 H10X      -31.3682  -47.2469   52.6748 H10X    1  POPC         0.000000
    106 H10Y      -30.9427  -45.6778   53.4658 H10Y    1  POPC         0.000000
    107 C311      -29.6646  -46.1353   51.9178 C311    1  POPC         0.000000
    108 H11X      -28.7138  -45.6061   52.3078 H11X    1  POPC         0.000000
    109 H11Y      -29.3713  -47.0192   51.3728 H11Y    1  POPC         0.000000
    110 C312      -30.3270  -44.9805   50.9838 C312    1  POPC         0.000000
    111 H12X      -31.3068  -45.3558   50.6578 H12X    1  POPC         0.000000
    112 H12Y      -30.5743  -44.1226   51.6489 H12Y    1  POPC         0.000000
    113 C313      -29.3471  -44.6072   49.8199 C313    1  POPC         0.000000
    114 H13X      -28.5803  -44.0110   50.3749 H13X    1  POPC         0.000000
    115 H13Y      -28.8808  -45.5861   49.5178 H13Y    1  POPC         0.000000
    116 C314      -30.0034  -43.8413   48.6819 C314    1  POPC         0.000000
    117 H14X      -30.7452  -44.4925   48.0729 H14X    1  POPC         0.000000
    118 H14Y      -30.5416  -42.9735   49.2259 H14Y    1  POPC         0.000000
    119 C315      -29.0055  -43.3260   47.7349 C315    1  POPC         0.000000
    120 H15X      -28.3508  -42.5638   48.2569 H15X    1  POPC         0.000000
    121 H15Y      -28.3943  -44.1518   47.4279 H15Y    1  POPC         0.000000
    122 C316      -29.6478  -42.5242   46.5989 C316    1  POPC         0.000000
    123 H16X      -29.8251  -41.5103   46.9240 H16X    1  POPC         0.000000
    124 C16Y      -28.8569  -42.3189   45.8059 C16Y    1  POPC         0.000000
    125 H16Z      -30.5176  -43.1394   46.1979 H16Z    1  POPC         0.000000
    126  C        -29.2361  -41.6970   45.1220    C    1  POPC         0.000000
    127  H        -28.5966  -43.1828   45.3749    H    1  POPC         0.000000
    128  H77      -28.0600  -41.9016   46.2420  H77    1  POPC         0.000000
    129  C78      -29.2190  -42.1460   44.2280    C    1  POPC         0.000000
    130  H79      -28.6824  -40.8648   45.0960  H79    1  POPC         0.000000
    131  H80      -30.1782  -41.4722   45.3720  H80    1  POPC         0.000000
    132  H        -35.6715  -41.6101   52.4276    H    1  POPC         0.000000
    133  H        -35.2434  -40.9703   50.8703    H    1  POPC         0.000000
    134  C        -28.6583  -41.6039   43.6021    C    1  POPC         0.000000
    135  H        -30.1537  -42.2116   43.8787    H    1  POPC         0.000000
    136  H        -28.8283  -43.0608   44.3305    H    1  POPC         0.000000
    137  C        -29.2212  -41.3154   42.8275    C    1  POPC         0.000000
    138  H        -27.8958  -42.1647   43.2794    H    1  POPC         0.000000
    139  H        -28.3103  -40.8022   44.0880    H    1  POPC         0.000000
    140  C        -33.3641  -38.5891   41.0055    C    1  POPC         0.000000
    141  H        -33.3401  -36.9935   41.3735    H    1  POPC         0.000000
    142  H        -34.5189  -37.9558   41.9788    H    1  POPC         0.000000
    143  C        -33.0275  -38.1222   40.1877    C    1  POPC         0.000000
    144  H        -34.2064  -39.0845   40.7930    H    1  POPC         0.000000
    145  H        -32.6708  -39.2250   41.3447    H    1  POPC         0.000000
    146  C        -33.6445  -38.3160   39.4250    C    1  POPC         0.000000
    147  H        -32.1090  -38.4566   39.9767    H    1  POPC         0.000000
    148  H        -33.0002  -37.1380   40.3627    H    1  POPC         0.000000
    149  H        -33.1311  -38.7734   38.6989    H    1  POPC         0.000000
    150  H        -34.0223  -37.4548   39.0850    H    1  POPC         0.000000
    151  H        -34.3829  -38.9090   39.7461    H    1  POPC         0.000000
    152  C        -28.8252  -41.6786   41.9841    C    1  POPC         0.000000
    153  H        -29.2397  -40.3162   42.7928    H    1  POPC         0.000000
    154  H        -30.1484  -41.6697   42.9490    H    1  POPC         0.000000
    155  H        -28.5878  -40.9168   41.3814    H    1  POPC         0.000000
    156  H        -29.4965  -42.2702   41.5377    H    1  POPC         0.000000
    157  H        -28.0045  -42.2036   42.2095    H    1  POPC         0.000000
@<TRIPOS>BOND
    1     1     5  1
    2     1     4  1
    3     1     2  1
    4     1     3  1
    5     2     7  1
    6     2     6  1
    7     2     8  1
    8     8     9  1
    9     8    10  1
   10     8    14  1
   11    11    15  1
   12    11    14  1
   13    11    12  1
   14    11    13  1
   15    15    16  1
   16    16    18  1
   17    16    17  1
   18    16    19  1
   19    19    21  1
   20    19    20  1
   21    19    27  1
   22    21    22  1
   23    22    24  1
   24    22    23  1
   25    24    26  1
   26    24    25  1
   27    24    36  1
   28    27    29  1
   29    27    30  1
   30    27    28  1
   31    30    31  1
   32    31    33  1
   33    31    32  1
   34    33    83  1
   35    33    35  1
   36    33    34  1
   37    36    39  1
   38    36    38  1
   39    36    37  1
   40    39    41  1
   41    39    40  1
   42    39    42  1
   43    42    43  1
   44    42    44  1
   45    42    45  1
   46    45    47  1
   47    45    46  1
   48    45    48  1
   49    48    51  1
   50    48    49  1
   51    48    50  1
   52    51    53  1
   53    51    52  1
   54    51    54  1
   55    54    56  1
   56    54    55  1
   57    54   132  1
   58    56    57  1
   59    56    58  1
   60    56   133  1
   61    58    61  1
   62    58    59  1
   63    58    60  1
   64    61    64  1
   65    61    62  1
   66    61    63  1
   67    64    67  1
   68    64    66  1
   69    64    65  1
   70    67    70  1
   71    67    69  1
   72    67    68  1
   73    70    73  1
   74    70    72  1
   75    70    71  1
   76    73    76  1
   77    73    75  1
   78    73    74  1
   79    76    78  1
   80    76    79  1
   81    76    77  1
   82    79    80  1
   83    79    81  1
   84    79    82  1
   85    80   140  1
   86    80   141  1
   87    80   142  1
   88    83    84  1
   89    83    85  1
   90    83    86  1
   91    86    88  1
   92    86    89  1
   93    86    87  1
   94    89    92  1
   95    89    91  1
   96    89    90  1
   97    92    94  1
   98    92    95  1
   99    92    93  1
  100    95    98  1
  101    95    97  1
  102    95    96  1
  103    98   100  1
  104    98    99  1
  105    98   101  1
  106   101   104  1
  107   101   102  1
  108   101   103  1
  109   104   106  1
  110   104   105  1
  111   104   107  1
  112   107   110  1
  113   107   108  1
  114   107   109  1
  115   110   112  1
  116   110   111  1
  117   110   113  1
  118   113   116  1
  119   113   114  1
  120   113   115  1
  121   116   117  1
  122   116   119  1
  123   116   118  1
  124   119   122  1
  125   119   120  1
  126   119   121  1
  127   122   124  1
  128   122   125  1
  129   122   123  1
  130   124   126  1
  131   124   127  1
  132   124   128  1
  133   126   129  1
  134   126   130  1
  135   126   131  1
  136   129   134  1
  137   129   135  1
  138   129   136  1
  139   134   137  1
  140   134   138  1
  141   134   139  1
  142   137   152 -1
  143   137   153 -1
  144   137   154 -1
  145   140   143  1
  146   140   144  1
  147   140   145  1
  148   143   146 -1
  149   143   147 -1
  150   143   148 -1
  151   146   149 -1
  152   146   150 -1
  153   146   151 -1
  154   152   155 -1
  155   152   156 -1
  156   152   157 -1

@<TRIPOS>SUBSTRUCTURE
1 ****        1 TEMP                        0 ****  **** 0 ROOT
