@<TRIPOS>MOLECULE
generated by VMD
  129  128    1    0    0
SMALL
NO_CHARGES
****
Energy = 0

@<TRIPOS>ATOM
      1  N        -34.5583  -55.9374   60.0363    N    1  POPC         0.000000
      2  C11      -33.5611  -56.4910   61.0794  C11    1  POPC         0.000000
      3  H12      -34.1429  -54.6670   59.4837  H12    1  POPC         0.000000
      4  H13      -35.9494  -55.7343   60.6322  H13    1  POPC         0.000000
      5  H14      -34.8085  -56.8602   58.9281  H14    1  POPC         0.000000
      6  H16      -32.5352  -56.1193   60.6736  H16    1  POPC         0.000000
      7  H17      -33.5904  -57.5881   61.0991  H17    1  POPC         0.000000
      8  C15      -33.6597  -55.8505   62.5565  C15    1  POPC         0.000000
      9  H51      -34.6445  -56.2781   62.8912  H51    1  POPC         0.000000
     10  H52      -32.7536  -56.1511   63.1356  H52    1  POPC         0.000000
     11  P1       -34.4802  -53.7092   63.5829   P1    1  POPC         0.000000
     12  O3       -34.3072  -54.0885   64.9839   O3    1  POPC         0.000000
     13  O4       -35.8471  -53.7719   63.0537   O4    1  POPC         0.000000
     14  O1       -33.5455  -54.4774   62.5529   O1    1  POPC         0.000000
     15  O2       -33.9520  -52.2218   63.3064   O2    1  POPC         0.000000
     16  C1       -33.8242  -51.6574   62.0366   C1    1  POPC         0.000000
     17  HA       -32.8109  -51.8757   61.6227   HA    1  POPC         0.000000
     18  HB       -34.5759  -51.9967   61.3304   HB    1  POPC         0.000000
     19  C2       -33.9131  -50.0835   62.0420   C2    1  POPC         0.000000
     20  HS       -34.8223  -49.8301   62.5479   HS    1  POPC         0.000000
     21  O21      -33.8902  -49.4901   60.6671  O21    1  POPC         0.000000
     22  C21      -34.1559  -48.1922   60.5594  C21    1  POPC         0.000000
     23  O22      -34.6236  -47.4897   61.4635  O22    1  POPC         0.000000
     24  C22      -33.5491  -47.6715   59.2427  C22    1  POPC         0.000000
     25  H2R      -32.5714  -47.2630   59.3669  H2R    1  POPC         0.000000
     26  H2S      -33.5585  -48.3874   58.4434  H2S    1  POPC         0.000000
     27  C3       -32.7616  -49.4130   62.8873   C3    1  POPC         0.000000
     28  HX       -32.8043  -48.3270   62.7406   HX    1  POPC         0.000000
     29  HY       -32.9906  -49.6644   63.9232   HY    1  POPC         0.000000
     30  O31      -31.5202  -49.9901   62.5024  O31    1  POPC         0.000000
     31  C31      -30.4996  -49.6077   63.1827  C31    1  POPC         0.000000
     32  O32      -30.5252  -48.7530   64.0449  O32    1  POPC         0.000000
     33  C32      -29.2320  -50.3608   62.6796  C32    1  POPC         0.000000
     34  H2X      -28.3632  -50.2654   63.3778  H2X    1  POPC         0.000000
     35  H2Y      -29.4774  -51.4210   62.6524  H2Y    1  POPC         0.000000
     36  C23      -34.4636  -46.5060   58.6988  C23    1  POPC         0.000000
     37  H3R      -35.4083  -46.8985   58.3725  H3R    1  POPC         0.000000
     38  H3S      -34.6852  -45.6933   59.4020  H3S    1  POPC         0.000000
     39  C24      -33.9567  -46.0422   57.3000  C24    1  POPC         0.000000
     40  H4R      -32.9379  -45.7507   57.5052  H4R    1  POPC         0.000000
     41  H4S      -33.8470  -46.9091   56.6308  H4S    1  POPC         0.000000
     42  C25      -34.6461  -44.9555   56.5032  C25    1  POPC         0.000000
     43  H5R      -35.6959  -45.2641   56.3339  H5R    1  POPC         0.000000
     44  H5S      -34.7209  -44.0017   57.1424  H5S    1  POPC         0.000000
     45  C26      -34.0192  -44.5888   55.1624  C26    1  POPC         0.000000
     46  H6R      -33.0344  -44.1513   55.3766  H6R    1  POPC         0.000000
     47  H6S      -33.9185  -45.5415   54.5312  H6S    1  POPC         0.000000
     48  C27      -34.7636  -43.5380   54.3235  C27    1  POPC         0.000000
     49  H7R      -35.6873  -44.0165   53.8822  H7R    1  POPC         0.000000
     50  H7S      -35.1613  -42.6615   54.9827  H7S    1  POPC         0.000000
     51  C28      -33.8479  -42.8021   53.3199  C28    1  POPC         0.000000
     52  H8R      -33.1704  -42.1880   54.0461  H8R    1  POPC         0.000000
     53  H8S      -33.2135  -43.4776   52.6457  H8S    1  POPC         0.000000
     54  C29      -34.7034  -41.8565   52.4199  C29    1  POPC         0.000000
     55  H91      -35.1410  -40.9479   52.9030  H91    1  POPC         0.000000
     56 C210      -34.8681  -41.8832   51.0349 C210    1  POPC         0.000000
     57 H101      -35.5153  -41.0973   50.7130 H101    1  POPC         0.000000
     58 C211      -34.3217  -42.8508   49.9998 C211    1  POPC         0.000000
     59 H11R      -33.5405  -43.5917   50.4298 H11R    1  POPC         0.000000
     60 H11S      -35.1114  -43.4960   49.7665 H11S    1  POPC         0.000000
     61 C212      -33.6276  -42.2044   48.8630 C212    1  POPC         0.000000
     62 H12R      -32.7329  -41.6582   49.2093 H12R    1  POPC         0.000000
     63 H12S      -33.3233  -42.9322   48.1179 H12S    1  POPC         0.000000
     64 C213      -34.3958  -41.1834   48.0531 C213    1  POPC         0.000000
     65 H13R      -35.2606  -41.6736   47.5759 H13R    1  POPC         0.000000
     66 H13S      -34.7421  -40.2957   48.6693 H13S    1  POPC         0.000000
     67 C214      -33.4818  -40.5600   47.0144 C214    1  POPC         0.000000
     68 H14R      -32.7401  -40.0328   47.5627 H14R    1  POPC         0.000000
     69 H14S      -33.0654  -41.3537   46.4334 H14S    1  POPC         0.000000
     70 C215      -34.1689  -39.6450   45.9974 C215    1  POPC         0.000000
     71 H15R      -34.9426  -40.1982   45.4112 H15R    1  POPC         0.000000
     72 H15S      -34.6323  -38.9463   46.6995 H15S    1  POPC         0.000000
     73 C216      -33.1979  -38.9125   45.0068 C216    1  POPC         0.000000
     74 H16R      -32.7603  -38.0305   45.4990 H16R    1  POPC         0.000000
     75 H16S      -32.3826  -39.5762   44.6698 H16S    1  POPC         0.000000
     76 C217      -33.8749  -38.3705   43.7377 C217    1  POPC         0.000000
     77 H17R      -34.6495  -39.1277   43.3174 H17R    1  POPC         0.000000
     78 H17S      -34.4043  -37.3888   44.0408 H17S    1  POPC         0.000000
     79 C218      -32.9237  -38.1230   42.6049 C218    1  POPC         0.000000
     80 H18R      -33.5566  -37.9081   41.7139 H18R    1  POPC         0.000000
     81 H18S      -32.2740  -37.3008   42.8462 H18S    1  POPC         0.000000
     82 H18T      -32.4143  -39.0828   42.4519 H18T    1  POPC         0.000000
     83  C33      -28.7881  -49.9472   61.2428  C33    1  POPC         0.000000
     84  H3X      -28.3697  -48.9169   61.3562  H3X    1  POPC         0.000000
     85  H3Y      -27.8597  -50.5157   60.9478  H3Y    1  POPC         0.000000
     86  C34      -29.8189  -49.9765   60.0966  C34    1  POPC         0.000000
     87  H4X      -30.3112  -50.9887   60.0273  H4X    1  POPC         0.000000
     88  H4Y      -30.6253  -49.1781   60.2688  H4Y    1  POPC         0.000000
     89  C35      -29.1629  -49.4878   58.7879  C35    1  POPC         0.000000
     90  H5X      -28.5305  -48.6174   58.9342  H5X    1  POPC         0.000000
     91  H5Y      -28.4324  -50.2503   58.4078  H5Y    1  POPC         0.000000
     92  C36      -30.1489  -49.1331   57.6598  C36    1  POPC         0.000000
     93  H6X      -30.6613  -50.1104   57.3584  H6X    1  POPC         0.000000
     94  H6Y      -30.9694  -48.4397   58.0349  H6Y    1  POPC         0.000000
     95  C37      -29.6212  -48.4675   56.4441  C37    1  POPC         0.000000
     96  H7X      -29.0808  -47.5322   56.7724  H7X    1  POPC         0.000000
     97  H7Y      -28.8597  -49.0249   55.9031  H7Y    1  POPC         0.000000
     98  C38      -30.5553  -47.9047   55.3780  C38    1  POPC         0.000000
     99  H8X      -31.1818  -48.7740   55.1267  H8X    1  POPC         0.000000
    100  H8Y      -31.1507  -47.2123   56.0262  H8Y    1  POPC         0.000000
    101  C39      -29.7875  -47.2609   54.1254  C39    1  POPC         0.000000
    102  H9X      -29.1310  -46.3966   54.4947  H9X    1  POPC         0.000000
    103 C310      -30.5996  -46.5512   53.0574 C310    1  POPC         0.000000
    104 H10X      -31.3684  -47.2474   52.6744 H10X    1  POPC         0.000000
    105 C311      -29.6648  -46.1358   51.9174 C311    1  POPC         0.000000
    106 H11X      -28.7140  -45.6067   52.3074 H11X    1  POPC         0.000000
    107 H11Y      -29.3716  -47.0197   51.3724 H11Y    1  POPC         0.000000
    108 C312      -30.3272  -44.9809   50.9835 C312    1  POPC         0.000000
    109 H12X      -31.3070  -45.3562   50.6575 H12X    1  POPC         0.000000
    110 H12Y      -30.5744  -44.1231   51.6486 H12Y    1  POPC         0.000000
    111 C313      -29.3473  -44.6076   49.8196 C313    1  POPC         0.000000
    112 H13X      -28.5804  -44.0115   50.3746 H13X    1  POPC         0.000000
    113 H13Y      -28.8810  -45.5866   49.5174 H13Y    1  POPC         0.000000
    114 C314      -30.0036  -43.8416   48.6816 C314    1  POPC         0.000000
    115 H14X      -30.7454  -44.4928   48.0726 H14X    1  POPC         0.000000
    116 H14Y      -30.5417  -42.9738   49.2257 H14Y    1  POPC         0.000000
    117 C315      -29.0057  -43.3264   47.7346 C315    1  POPC         0.000000
    118 H15X      -28.3509  -42.5642   48.2566 H15X    1  POPC         0.000000
    119 H15Y      -28.3945  -44.1522   47.4276 H15Y    1  POPC         0.000000
    120 C316      -29.6479  -42.5245   46.5987 C316    1  POPC         0.000000
    121 H16X      -29.8252  -41.5106   46.9238 H16X    1  POPC         0.000000
    122 C16Y      -28.8570  -42.3192   45.8057 C16Y    1  POPC         0.000000
    123 H16Z      -30.5178  -43.1396   46.1977 H16Z    1  POPC         0.000000
    124  C        -29.2362  -41.6972   45.1218    C    1  POPC         0.000000
    125  H        -28.5968  -43.1831   45.3746    H    1  POPC         0.000000
    126  H77      -28.0601  -41.9020   46.2418  H77    1  POPC         0.000000
    127  H78      -29.2192  -42.1462   44.2278  H78    1  POPC         0.000000
    128  H79      -28.6825  -40.8651   45.0958  H79    1  POPC         0.000000
    129  H80      -30.1783  -41.4724   45.3718  H80    1  POPC         0.000000
@<TRIPOS>BOND
    1     1     5  1
    2     1     4  1
    3     1     2  1
    4     1     3  1
    5     2     7  1
    6     2     6  1
    7     2     8  1
    8     8     9  1
    9     8    10  1
   10     8    14  1
   11    11    15  1
   12    11    14  1
   13    11    12  1
   14    11    13  1
   15    15    16  1
   16    16    18  1
   17    16    17  1
   18    16    19  1
   19    19    21  1
   20    19    20  1
   21    19    27  1
   22    21    22  1
   23    22    24  1
   24    22    23  1
   25    24    26  1
   26    24    25  1
   27    24    36  1
   28    27    29  1
   29    27    30  1
   30    27    28  1
   31    30    31  1
   32    31    33  1
   33    31    32  1
   34    33    83  1
   35    33    35  1
   36    33    34  1
   37    36    39  1
   38    36    38  1
   39    36    37  1
   40    39    41  1
   41    39    40  1
   42    39    42  1
   43    42    43  1
   44    42    44  1
   45    42    45  1
   46    45    47  1
   47    45    46  1
   48    45    48  1
   49    48    51  1
   50    48    49  1
   51    48    50  1
   52    51    53  1
   53    51    52  1
   54    51    54  1
   55    54    56  2
   56    54    55  1
   57    56    57  1
   58    56    58  1
   59    58    61  1
   60    58    59  1
   61    58    60  1
   62    61    64  1
   63    61    62  1
   64    61    63  1
   65    64    67  1
   66    64    66  1
   67    64    65  1
   68    67    70  1
   69    67    69  1
   70    67    68  1
   71    70    73  1
   72    70    72  1
   73    70    71  1
   74    73    76  1
   75    73    75  1
   76    73    74  1
   77    76    78  1
   78    76    79  1
   79    76    77  1
   80    79    80  1
   81    79    81  1
   82    79    82  1
   83    83    84  1
   84    83    85  1
   85    83    86  1
   86    86    88  1
   87    86    89  1
   88    86    87  1
   89    89    92  1
   90    89    91  1
   91    89    90  1
   92    92    94  1
   93    92    95  1
   94    92    93  1
   95    95    98  1
   96    95    97  1
   97    95    96  1
   98    98   100  1
   99    98    99  1
  100    98   101  1
  101   101   103  2
  102   101   102  1
  103   103   104  1
  104   103   105  1
  105   105   108  1
  106   105   106  1
  107   105   107  1
  108   108   110  1
  109   108   109  1
  110   108   111  1
  111   111   114  1
  112   111   112  1
  113   111   113  1
  114   114   115  1
  115   114   117  1
  116   114   116  1
  117   117   120  1
  118   117   118  1
  119   117   119  1
  120   120   122  1
  121   120   123  1
  122   120   121  1
  123   122   124  1
  124   122   125  1
  125   122   126  1
  126   124   127  1
  127   124   128  1
  128   124   129  1

@<TRIPOS>SUBSTRUCTURE
1 ****        1 TEMP                        0 ****  **** 0 ROOT
