@<TRIPOS>MOLECULE
generated by VMD
  125  124    1    0    0
SMALL
NO_CHARGES
****
Energy = 0

@<TRIPOS>ATOM
      1  N        -31.2811  -47.0351   65.6139    N    1  POPC         0.000000
      2  C11      -30.5543  -46.2532   66.7322  C11    1  POPC         0.000000
      3  H12      -31.4053  -46.2758   64.3891  H12    1  POPC         0.000000
      4  H13      -32.6900  -47.4485   66.0318  H13    1  POPC         0.000000
      5  H14      -30.6458  -48.3159   65.2966  H14    1  POPC         0.000000
      6  H16      -29.7894  -45.6089   66.1363  H16    1  POPC         0.000000
      7  H17      -30.0321  -46.9413   67.4090  H17    1  POPC         0.000000
      8  C15      -31.4485  -45.1726   67.5294  C15    1  POPC         0.000000
      9  H51      -32.1293  -45.8629   68.0993  H51    1  POPC         0.000000
     10  H52      -30.7686  -44.5216   68.1296  H52    1  POPC         0.000000
     11  P1       -33.5238  -43.8230   67.0978   P1    1  POPC         0.000000
     12  O3       -33.6619  -43.2494   68.4349   O3    1  POPC         0.000000
     13  O4       -34.4045  -44.9521   66.7775   O4    1  POPC         0.000000
     14  O1       -32.0487  -44.2546   66.6947   O1    1  POPC         0.000000
     15  O2       -33.7600  -42.7227   65.9571   O2    1  POPC         0.000000
     16  C1       -33.5190  -42.9343   64.6000   C1    1  POPC         0.000000
     17  HA       -32.4641  -42.6680   64.3531   HA    1  POPC         0.000000
     18  HB       -33.7118  -43.9523   64.2758   HB    1  POPC         0.000000
     19  C2       -34.3852  -42.0103   63.6613   C2    1  POPC         0.000000
     20  HS       -35.4062  -42.1466   63.9542   HS    1  POPC         0.000000
     21  O21      -34.2071  -42.3199   62.2072  O21    1  POPC         0.000000
     22  C21      -35.0373  -41.7298   61.3523  C21    1  POPC         0.000000
     23  O22      -36.0654  -41.1211   61.6725  O22    1  POPC         0.000000
     24  C22      -34.3773  -41.7043   59.9603  C22    1  POPC         0.000000
     25  H2R      -33.8455  -40.7992   59.7686  H2R    1  POPC         0.000000
     26  H2S      -33.7571  -42.5551   59.7551  H2S    1  POPC         0.000000
     27  C3       -34.0875  -40.4753   63.8777   C3    1  POPC         0.000000
     28  HX       -34.6197  -39.9022   63.1088   HX    1  POPC         0.000000
     29  HY       -34.4886  -40.2476   64.8657   HY    1  POPC         0.000000
     30  O31      -32.6796  -40.2790   63.8597  O31    1  POPC         0.000000
     31  C31      -32.2849  -39.0849   64.1240  C31    1  POPC         0.000000
     32  O32      -33.0241  -38.1371   64.2993  O32    1  POPC         0.000000
     33  C32      -30.7279  -39.0416   64.1170  C32    1  POPC         0.000000
     34  H2X      -30.3171  -38.1076   64.5753  H2X    1  POPC         0.000000
     35  H2Y      -30.3797  -39.8597   64.7448  H2Y    1  POPC         0.000000
     36  C23      -35.5123  -41.8063   58.8683  C23    1  POPC         0.000000
     37  H3R      -35.9580  -42.7834   58.8891  H3R    1  POPC         0.000000
     38  H3S      -36.3324  -41.0825   58.9505  H3S    1  POPC         0.000000
     39  C24      -34.8752  -41.9168   57.4503  C24    1  POPC         0.000000
     40  H4R      -34.2794  -41.0196   57.3905  H4R    1  POPC         0.000000
     41  H4S      -34.1281  -42.7246   57.4331  H4S    1  POPC         0.000000
     42  C25      -35.7062  -42.0606   56.1933  C25    1  POPC         0.000000
     43  H5R      -36.3310  -42.9698   56.2930  H5R    1  POPC         0.000000
     44  H5S      -36.4604  -41.1938   56.1325  H5S    1  POPC         0.000000
     45  C26      -34.9442  -42.1301   54.8742  C26    1  POPC         0.000000
     46  H6R      -34.4524  -41.1570   54.7355  H6R    1  POPC         0.000000
     47  H6S      -34.1730  -42.9770   54.9400  H6S    1  POPC         0.000000
     48  C27      -35.7881  -42.3500   53.6082  C27    1  POPC         0.000000
     49  H7R      -36.1349  -43.4251   53.5879  H7R    1  POPC         0.000000
     50  H7S      -36.7663  -41.7152   53.6253  H7S    1  POPC         0.000000
     51  C28      -35.0943  -41.8475   52.3223  C28    1  POPC         0.000000
     52  H8R      -35.1065  -40.6925   52.4996  H8R    1  POPC         0.000000
     53  H8S      -34.0232  -42.2222   52.1612  H8S    1  POPC         0.000000
     54  C29      -35.9522  -42.2294   51.0762  C29    1  POPC         0.000000
     55  H91      -36.9203  -41.6875   50.9344  H91    1  POPC         0.000000
     56 C210      -35.6080  -43.0420   49.9960 C210    1  POPC         0.000000
     57 H101      -36.4128  -43.1077   49.2968 H101    1  POPC         0.000000
     58 C211      -34.3400  -43.8330   49.7270 C211    1  POPC         0.000000
     59 H11R      -33.4870  -43.6050   50.4790 H11R    1  POPC         0.000000
     60 H11S      -34.5660  -44.8260   49.9670 H11S    1  POPC         0.000000
     61 C212      -33.7340  -43.5870   48.3990 C212    1  POPC         0.000000
     62 H12R      -33.4120  -42.5350   48.3040 H12R    1  POPC         0.000000
     63 H12S      -32.8760  -44.2290   48.2290 H12S    1  POPC         0.000000
     64 C213      -34.5900  -43.8250   47.1750 C213    1  POPC         0.000000
     65 H13R      -34.8730  -44.8900   47.1310 H13R    1  POPC         0.000000
     66 H13S      -35.5190  -43.1740   47.1480 H13S    1  POPC         0.000000
     67 C214      -33.8300  -43.4110   45.9290 C214    1  POPC         0.000000
     68 H14R      -33.6880  -42.3610   46.0130 H14R    1  POPC         0.000000
     69 H14S      -32.9050  -43.9440   45.9230 H14S    1  POPC         0.000000
     70 C215      -34.5000  -43.7700   44.6000 C215    1  POPC         0.000000
     71 H15R      -34.6420  -44.8740   44.5020 H15R    1  POPC         0.000000
     72 H15S      -35.4550  -43.2630   44.7610 H15S    1  POPC         0.000000
     73 C216      -33.7650  -43.2300   43.3230 C216    1  POPC         0.000000
     74 H16R      -34.0260  -42.1720   43.1640 H16R    1  POPC         0.000000
     75 H16S      -32.6690  -43.3190   43.4150 H16S    1  POPC         0.000000
     76 C217      -34.1550  -43.9410   42.0170 C217    1  POPC         0.000000
     77 H17R      -34.2500  -45.0880   42.1750 H17R    1  POPC         0.000000
     78 H17S      -35.1720  -43.4990   41.6930 H17S    1  POPC         0.000000
     79 C218      -33.1440  -43.7840   40.9200 C218    1  POPC         0.000000
     80 H18R      -33.4590  -44.4810   40.1110 H18R    1  POPC         0.000000
     81 H18S      -33.1220  -42.7620   40.5870 H18S    1  POPC         0.000000
     82 H18T      -32.2030  -44.1490   41.3520 H18T    1  POPC         0.000000
     83  C33      -30.1038  -39.2401   62.7010  C33    1  POPC         0.000000
     84  H3X      -30.3270  -38.2920   62.1522  H3X    1  POPC         0.000000
     85  H3Y      -28.9788  -39.1819   62.7650  H3Y    1  POPC         0.000000
     86  C34      -30.5276  -40.4560   61.8537  C34    1  POPC         0.000000
     87  H4X      -30.3873  -41.4141   62.4304  H4X    1  POPC         0.000000
     88  H4Y      -31.6306  -40.3601   61.5487  H4Y    1  POPC         0.000000
     89  C35      -29.8156  -40.4164   60.4857  C35    1  POPC         0.000000
     90  H5X      -29.7988  -39.4223   60.0489  H5X    1  POPC         0.000000
     91  H5Y      -28.7225  -40.6402   60.6066  H5Y    1  POPC         0.000000
     92  C36      -30.4034  -41.3573   59.4184  C36    1  POPC         0.000000
     93  H6X      -30.2191  -42.4234   59.7901  H6X    1  POPC         0.000000
     94  H6Y      -31.5324  -41.2335   59.3385  H6Y    1  POPC         0.000000
     95  C37      -29.9134  -41.2388   58.0245  C37    1  POPC         0.000000
     96  H7X      -30.0636  -40.1688   57.6977  H7X    1  POPC         0.000000
     97  H7Y      -28.8453  -41.3976   57.8924  H7Y    1  POPC         0.000000
     98  C38      -30.5862  -41.9887   56.8793  C38    1  POPC         0.000000
     99  H8X      -30.5630  -43.0308   57.2310  H8X    1  POPC         0.000000
    100  H8Y      -31.6253  -41.5919   57.0074  H8Y    1  POPC         0.000000
    101  C39      -29.8803  -41.7571   55.4573  C39    1  POPC         0.000000
    102  H9X      -29.9165  -40.6401   55.2006  H9X    1  POPC         0.000000
    103  H9Y      -28.8332  -42.2159   55.5542  H9Y    1  POPC         0.000000
    104 C310      -30.5291  -42.3440   54.2162 C310    1  POPC         0.000000
    105 H10X      -30.6629  -43.4310   54.3659 H10X    1  POPC         0.000000
    106 H10Y      -31.3793  -41.8051   54.0333 H10Y    1  POPC         0.000000
    107 C311      -29.6142  -42.0965   53.0132 C311    1  POPC         0.000000
    108 H11X      -29.2535  -40.9994   52.9615 H11X    1  POPC         0.000000
    109 H11Y      -28.7531  -42.7413   53.0961 H11Y    1  POPC         0.000000
    110 C312      -30.4132  -42.2493   51.6052 C312    1  POPC         0.000000
    111 H12X      -30.8950  -43.2364   51.6169 H12X    1  POPC         0.000000
    112 H12Y      -31.2633  -41.5325   51.6314 H12Y    1  POPC         0.000000
    113 C313      -29.4322  -42.0127   50.4063 C313    1  POPC         0.000000
    114 H13X      -29.3075  -40.9017   50.4545 H13X    1  POPC         0.000000
    115 H13Y      -28.4661  -42.4906   50.7321 H13Y    1  POPC         0.000000
    116 C314      -29.9621  -42.5055   49.0691 C314    1  POPC         0.000000
    117 H14X      -30.0209  -43.6625   49.0098 H14X    1  POPC         0.000000
    118 H14Y      -31.0092  -42.0187   49.0063 H14Y    1  POPC         0.000000
    119 C315      -29.1112  -42.0610   47.9572 C315    1  POPC         0.000000
    120 H15X      -29.1475  -40.9320   47.8845 H15X    1  POPC         0.000000
    121 H15Y      -28.1052  -42.3589   48.1802 H15Y    1  POPC         0.000000
    122 C316      -29.6481  -42.5228   46.5991 C316    1  POPC         0.000000
    123 H16X      -30.4093  -41.8379   46.2563 H16X    1  POPC         0.000000
    124 H16Y      -28.8572  -42.3174   45.8062 H16Y    1  POPC         0.000000
    125 H16Z      -29.8969  -43.6299   46.6898 H16Z    1  POPC         0.000000
@<TRIPOS>BOND
    1     1     5  1
    2     1     4  1
    3     1     2  1
    4     1     3  1
    5     2     7  1
    6     2     6  1
    7     2     8  1
    8     8     9  1
    9     8    10  1
   10     8    14  1
   11    11    15  1
   12    11    14  1
   13    11    12  1
   14    11    13  1
   15    15    16  1
   16    16    18  1
   17    16    17  1
   18    16    19  1
   19    19    21  1
   20    19    20  1
   21    19    27  1
   22    21    22  1
   23    22    24  1
   24    22    23  1
   25    24    26  1
   26    24    25  1
   27    24    36  1
   28    27    29  1
   29    27    30  1
   30    27    28  1
   31    30    31  1
   32    31    33  1
   33    31    32  1
   34    33    83  1
   35    33    35  1
   36    33    34  1
   37    36    39  1
   38    36    38  1
   39    36    37  1
   40    39    41  1
   41    39    40  1
   42    39    42  1
   43    42    43  1
   44    42    44  1
   45    42    45  1
   46    45    47  1
   47    45    46  1
   48    45    48  1
   49    48    51  1
   50    48    49  1
   51    48    50  1
   52    51    53  1
   53    51    52  1
   54    51    54  1
   55    54    56  2
   56    54    55  1
   57    56    57  1
   58    56    58  1
   59    58    61  1
   60    58    59  1
   61    58    60  1
   62    61    64  1
   63    61    62  1
   64    61    63  1
   65    64    67  1
   66    64    66  1
   67    64    65  1
   68    67    70  1
   69    67    69  1
   70    67    68  1
   71    70    73  1
   72    70    72  1
   73    70    71  1
   74    73    76  1
   75    73    75  1
   76    73    74  1
   77    76    78  1
   78    76    79  1
   79    76    77  1
   80    79    80  1
   81    79    81  1
   82    79    82  1
   83    83    84  1
   84    83    85  1
   85    83    86  1
   86    86    88  1
   87    86    89  1
   88    86    87  1
   89    89    92  1
   90    89    91  1
   91    89    90  1
   92    92    94  1
   93    92    95  1
   94    92    93  1
   95    95    98  1
   96    95    97  1
   97    95    96  1
   98    98   100  1
   99    98    99  1
  100    98   101  1
  101   101   104  1
  102   101   102  1
  103   101   103  1
  104   104   106  1
  105   104   105  1
  106   104   107  1
  107   107   110  1
  108   107   108  1
  109   107   109  1
  110   110   112  1
  111   110   111  1
  112   110   113  1
  113   113   116  1
  114   113   114  1
  115   113   115  1
  116   116   117  1
  117   116   119  1
  118   116   118  1
  119   119   122  1
  120   119   120  1
  121   119   121  1
  122   122   124  1
  123   122   125  1
  124   122   123  1

@<TRIPOS>SUBSTRUCTURE
1 ****        1 TEMP                        0 ****  **** 0 ROOT
