@<TRIPOS>MOLECULE
generated by VMD
  147  146    1    0    0
SMALL
NO_CHARGES
****
Energy = 0

@<TRIPOS>ATOM
      1  C        -33.4742  -54.7732   61.4273    C    1  POPC         0.000000
      2  C11      -32.4584  -55.0805   62.5525  C11    1  POPC         0.000000
      3  H12      -33.1869  -53.5353   60.7353  H12    1  POPC         0.000000
      4  H13      -34.9012  -54.6708   61.9603  H13    1  POPC         0.000000
      5  O14      -33.5746  -55.8412   60.4303  O14    1  POPC         0.000000
      6  O16      -31.4682  -54.6378   62.1285  O16    1  POPC         0.000000
      7  H17      -32.3628  -56.1626   62.7015  H17    1  POPC         0.000000
      8  C15      -32.6862  -54.2884   63.9394  C15    1  POPC         0.000000
      9  H51      -33.6274  -54.7901   64.2983  H51    1  POPC         0.000000
     10  H52      -31.7743  -54.4097   64.5715  H52    1  POPC         0.000000
     11  P1       -33.7876  -52.1560   64.6823   P1    1  POPC         0.000000
     12  O3       -33.6238  -52.3461   66.1223   O3    1  POPC         0.000000
     13  O4       -35.1167  -52.4427   64.1322   O4    1  POPC         0.000000
     14  O1       -32.7329  -52.9213   63.7733   O1    1  POPC         0.000000
     15  O2       -33.4252  -50.6592   64.2422   O2    1  POPC         0.000000
     16  C1       -33.3150  -50.2342   62.9182   C1    1  POPC         0.000000
     17  HA       -32.2690  -50.3766   62.5563   HA    1  POPC         0.000000
     18  HB       -33.9951  -50.7401   62.2402   HB    1  POPC         0.000000
     19  C2       -33.5865  -48.6921   62.7332   C2    1  POPC         0.000000
     20  HS       -34.5375  -48.4919   63.1822   HS    1  POPC         0.000000
     21  O21      -33.5803  -48.2652   61.2982  O21    1  POPC         0.000000
     22  C21      -33.9919  -47.0291   61.0281  C21    1  POPC         0.000000
     23  O22      -34.5718  -46.2869   61.8311  O22    1  POPC         0.000000
     24  C22      -33.4007  -46.5953   59.6732  C22    1  POPC         0.000000
     25  H2R      -32.4816  -46.0616   59.7712  H2R    1  POPC         0.000000
     26  H2S      -33.2959  -47.3963   58.9672  H2S    1  POPC         0.000000
     27  C3       -32.5533  -47.7945   63.5182   C3    1  POPC         0.000000
     28  HX       -32.7159  -46.7464   63.2412   HX    1  POPC         0.000000
     29  HY       -32.7904  -47.9493   64.5712   HY    1  POPC         0.000000
     30  O31      -31.2404  -48.2598   63.2343  O31    1  POPC         0.000000
     31  C31      -30.2963  -47.6821   63.8873  C31    1  POPC         0.000000
     32  O32      -30.4541  -46.7420   64.6413  O32    1  POPC         0.000000
     33  C32      -28.9324  -48.3315   63.5085  C32    1  POPC         0.000000
     34  H2X      -28.1074  -48.0517   64.2105  H2X    1  POPC         0.000000
     35  H2Y      -29.0517  -49.4105   63.6025  H2Y    1  POPC         0.000000
     36  C23      -34.4235  -45.6190   58.9721  C23    1  POPC         0.000000
     37  H3R      -35.3026  -46.1578   58.6731  H3R    1  POPC         0.000000
     38  H3S      -34.7632  -44.7629   59.5681  H3S    1  POPC         0.000000
     39  C24      -33.9213  -45.2632   57.5411  C24    1  POPC         0.000000
     40  H4R      -32.9521  -44.8295   57.7331  H4R    1  POPC         0.000000
     41  H4S      -33.6865  -46.1822   56.9831  H4S    1  POPC         0.000000
     42  C25      -34.7019  -44.3670   56.6031  C25    1  POPC         0.000000
     43  H5R      -35.7021  -44.8167   56.4470  H5R    1  POPC         0.000000
     44  H5S      -34.9117  -43.3619   57.1220  H5S    1  POPC         0.000000
     45  C26      -34.0708  -44.0862   55.2431  C26    1  POPC         0.000000
     46  H6R      -33.1527  -43.5105   55.4271  H6R    1  POPC         0.000000
     47  H6S      -33.8361  -45.0872   54.7341  H6S    1  POPC         0.000000
     48  C27      -34.9016  -43.2370   54.2670  C27    1  POPC         0.000000
     49  H7R      -35.7457  -43.8718   53.8650  H7R    1  POPC         0.000000
     50  H7S      -35.4242  -42.3448   54.8080  H7S    1  POPC         0.000000
     51  C28      -34.0412  -42.5192   53.2040  C28    1  POPC         0.000000
     52  H8R      -33.4671  -41.7474   53.8681  H8R    1  POPC         0.000000
     53  H8S      -33.3065  -43.1865   52.6321  H8S    1  POPC         0.000000
     54  C29      -34.9650  -41.7940   52.1780  C29    1  POPC         0.000000
     55  H91      -35.5248  -40.8948   52.5370  H91    1  POPC         0.000000
     56 C210      -35.0740  -42.0020   50.8030 C210    1  POPC         0.000000
     57 H101      -35.7960  -41.3430   50.3730 H101    1  POPC         0.000000
     58 C211      -34.3800  -43.0100   49.9040 C211    1  POPC         0.000000
     59 H11R      -33.5340  -43.5960   50.4380 H11R    1  POPC         0.000000
     60 H11S      -35.0790  -43.7690   49.7320 H11S    1  POPC         0.000000
     61 C212      -33.7250  -42.4210   48.7140 C212    1  POPC         0.000000
     62 H12R      -32.9130  -41.7340   49.0130 H12R    1  POPC         0.000000
     63 H12S      -33.3100  -43.1880   48.0690 H12S    1  POPC         0.000000
     64 C213      -34.5760  -41.6010   47.7700 C213    1  POPC         0.000000
     65 H13R      -35.3600  -42.2440   47.3360 H13R    1  POPC         0.000000
     66 H13S      -35.0460  -40.6950   48.2680 H13S    1  POPC         0.000000
     67 C214      -33.7020  -40.9970   46.6860 C214    1  POPC         0.000000
     68 H14R      -33.0480  -40.3230   47.1850 H14R    1  POPC         0.000000
     69 H14S      -33.1760  -41.7960   46.2130 H14S    1  POPC         0.000000
     70 C215      -34.4540  -40.2950   45.5510 C215    1  POPC         0.000000
     71 H15R      -35.1350  -41.0020   45.0180 H15R    1  POPC         0.000000
     72 H15S      -35.0210  -39.5810   46.1540 H15S    1  POPC         0.000000
     73 C216      -33.5390  -39.5720   44.5020 C216    1  POPC         0.000000
     74 H16R      -33.2260  -38.5920   44.8960 H16R    1  POPC         0.000000
     75 H16S      -32.6390  -40.1660   44.2670 H16S    1  POPC         0.000000
     76 C217      -34.2260  -39.2660   43.1620 C217    1  POPC         0.000000
     77 H17R      -34.8910  -40.1550   42.8180 H17R    1  POPC         0.000000
     78 H17S      -34.8770  -38.3270   43.3340 H17S    1  POPC         0.000000
     79 C218      -33.2680  -39.0400   42.0300 C218    1  POPC         0.000000
     80 C18R      -33.8880  -39.0070   41.1060    C    1  POPC         0.000000
     81 H18S      -32.7300  -38.1220   42.1860 H18S    1  POPC         0.000000
     82 H18T      -32.6450  -39.9430   42.0050 H18T    1  POPC         0.000000
     83  C33      -28.4863  -48.0377   62.0425  C33    1  POPC         0.000000
     84  H3X      -28.1939  -46.9588   62.0415  H3X    1  POPC         0.000000
     85  H3Y      -27.4874  -48.5220   61.8405  H3Y    1  POPC         0.000000
     86  C34      -29.4613  -48.3235   60.8853  C34    1  POPC         0.000000
     87  H4X      -29.8306  -49.3884   60.9254  H4X    1  POPC         0.000000
     88  H4Y      -30.3612  -47.6121   60.9423  H4Y    1  POPC         0.000000
     89  C35      -28.8192  -47.9146   59.5444  C35    1  POPC         0.000000
     90  H5X      -28.2978  -46.9638   59.5995  H5X    1  POPC         0.000000
     91  H5Y      -27.9914  -48.6219   59.2735  H5Y    1  POPC         0.000000
     92  C36      -29.7961  -47.8134   58.3573  C36    1  POPC         0.000000
     93  H6X      -30.1804  -48.8733   58.1633  H6X    1  POPC         0.000000
     94  H6Y      -30.7059  -47.1841   58.6273  H6Y    1  POPC         0.000000
     95  C37      -29.3038  -47.2346   57.0834  C37    1  POPC         0.000000
     96  H7X      -28.8886  -46.2107   57.3103  H7X    1  POPC         0.000000
     97  H7Y      -28.4629  -47.7558   56.6315  H7Y    1  POPC         0.000000
     98  C38      -30.2567  -46.9154   55.9363  C38    1  POPC         0.000000
     99  H8X      -30.7679  -47.8761   55.7763  H8X    1  POPC         0.000000
    100  H8Y      -30.9515  -46.2291   56.4822  H8Y    1  POPC         0.000000
    101  C39      -29.5225  -46.3336   54.6343  C39    1  POPC         0.000000
    102  H9X      -28.9851  -45.3597   54.9123  H9X    1  POPC         0.000000
    103  H9Y      -28.8527  -47.1848   54.2523  H9Y    1  POPC         0.000000
    104 C310      -30.3703  -45.8554   53.4693 C310    1  POPC         0.000000
    105 H10X      -31.0385  -46.6791   53.1553 H10X    1  POPC         0.000000
    106 H10Y      -30.8290  -44.9901   53.7622 H10Y    1  POPC         0.000000
    107 C311      -29.4481  -45.4656   52.3103 C311    1  POPC         0.000000
    108 H11X      -28.5809  -44.7849   52.6563 H11X    1  POPC         0.000000
    109 H11Y      -29.0344  -46.3658   51.8803 H11Y    1  POPC         0.000000
    110 C312      -30.2048  -44.5145   51.2302 C312    1  POPC         0.000000
    111 H12X      -31.1199  -45.0401   50.9282 H12X    1  POPC         0.000000
    112 H12Y      -30.5736  -43.6224   51.7822 H12Y    1  POPC         0.000000
    113 C313      -29.2316  -44.1637   50.0533 C313    1  POPC         0.000000
    114 H13X      -28.5615  -43.4189   50.5513 H13X    1  POPC         0.000000
    115 H13Y      -28.6439  -45.1089   49.8813 H13Y    1  POPC         0.000000
    116 C314      -29.9293  -43.6196   48.8172 C314    1  POPC         0.000000
    117 H14X      -30.5656  -44.4214   48.2722 H14X    1  POPC         0.000000
    118 H14Y      -30.5841  -42.7654   49.2412 H14Y    1  POPC         0.000000
    119 C315      -28.9632  -43.1019   47.8393 C315    1  POPC         0.000000
    120 H15X      -28.4210  -42.2120   48.2813 H15X    1  POPC         0.000000
    121 H15Y      -28.2485  -43.8781   47.6463 H15Y    1  POPC         0.000000
    122 C316      -29.6520  -42.5197   46.6012 C316    1  POPC         0.000000
    123 H16X      -29.9567  -41.5036   46.7962 H16X    1  POPC         0.000000
    124 C16Y      -28.8609  -42.3139   45.8082 C16Y    1  POPC         0.000000
    125 H16Z      -30.4282  -43.2765   46.2562 H16Z    1  POPC         0.000000
    126  H18      -30.6253  -54.6970   62.6635  H18    1  POPC         0.000000
    127  H        -32.9488  -56.5804   60.6815    H    1  POPC         0.000000
    128  C42      -29.2397  -41.6908   45.1242  C42    1  POPC         0.000000
    129  H76      -28.6021  -43.1781   45.3753  H76    1  POPC         0.000000
    130  H77      -28.0628  -41.8982   46.2443  H77    1  POPC         0.000000
    131  C78      -29.2228  -42.1389   44.2302    C    1  POPC         0.000000
    132  H79      -28.6844  -40.8591   45.0992  H79    1  POPC         0.000000
    133  H80      -30.1805  -41.4646   45.3752  H80    1  POPC         0.000000
    134  H        -35.9555  -41.6619   52.1392    H    1  POPC         0.000000
    135  H        -35.5533  -41.1676   50.5308    H    1  POPC         0.000000
    136  C        -28.6615  -41.5968   43.6048    C    1  POPC         0.000000
    137  H        -30.1575  -42.2034   43.8807    H    1  POPC         0.000000
    138  H        -28.8329  -43.0541   44.3321    H    1  POPC         0.000000
    139  H        -29.2240  -41.3072   42.8304    H    1  POPC         0.000000
    140  H        -27.8994  -42.1579   43.2818    H    1  POPC         0.000000
    141  H        -28.3130  -40.7957   44.0915    H    1  POPC         0.000000
    142  C        -33.5925  -39.7367   40.4894    C    1  POPC         0.000000
    143  H        -33.7674  -38.1178   40.6646    H    1  POPC         0.000000
    144  H        -34.8481  -39.1375   41.3533    H    1  POPC         0.000000
    145  H        -33.2825  -39.3308   39.6297    H    1  POPC         0.000000
    146  H        -34.3632  -40.3505   40.3184    H    1  POPC         0.000000
    147  H        -32.8431  -40.2415   40.9179    H    1  POPC         0.000000
@<TRIPOS>BOND
    1     1     5  1
    2     1     4  1
    3     1     2  1
    4     1     3  1
    5     2     7  1
    6     2     6  1
    7     2     8  1
    8     5   127  1
    9     6   126  1
   10     8     9  1
   11     8    10  1
   12     8    14  1
   13    11    15  1
   14    11    14  1
   15    11    12  1
   16    11    13  1
   17    15    16  1
   18    16    18  1
   19    16    17  1
   20    16    19  1
   21    19    21  1
   22    19    20  1
   23    19    27  1
   24    21    22  1
   25    22    24  1
   26    22    23  1
   27    24    26  1
   28    24    25  1
   29    24    36  1
   30    27    29  1
   31    27    30  1
   32    27    28  1
   33    30    31  1
   34    31    33  1
   35    31    32  1
   36    33    83  1
   37    33    35  1
   38    33    34  1
   39    36    39  1
   40    36    38  1
   41    36    37  1
   42    39    41  1
   43    39    40  1
   44    39    42  1
   45    42    43  1
   46    42    44  1
   47    42    45  1
   48    45    47  1
   49    45    46  1
   50    45    48  1
   51    48    51  1
   52    48    49  1
   53    48    50  1
   54    51    53  1
   55    51    52  1
   56    51    54  1
   57    54    56  1
   58    54    55  1
   59    54   134  1
   60    56    57  1
   61    56    58  1
   62    56   135  1
   63    58    61  1
   64    58    59  1
   65    58    60  1
   66    61    64  1
   67    61    62  1
   68    61    63  1
   69    64    67  1
   70    64    66  1
   71    64    65  1
   72    67    70  1
   73    67    69  1
   74    67    68  1
   75    70    73  1
   76    70    72  1
   77    70    71  1
   78    73    76  1
   79    73    75  1
   80    73    74  1
   81    76    78  1
   82    76    79  1
   83    76    77  1
   84    79    80  1
   85    79    81  1
   86    79    82  1
   87    80   142 -1
   88    80   143 -1
   89    80   144 -1
   90    83    84  1
   91    83    85  1
   92    83    86  1
   93    86    88  1
   94    86    89  1
   95    86    87  1
   96    89    92  1
   97    89    91  1
   98    89    90  1
   99    92    94  1
  100    92    95  1
  101    92    93  1
  102    95    98  1
  103    95    97  1
  104    95    96  1
  105    98   100  1
  106    98    99  1
  107    98   101  1
  108   101   104  1
  109   101   102  1
  110   101   103  1
  111   104   106  1
  112   104   105  1
  113   104   107  1
  114   107   110  1
  115   107   108  1
  116   107   109  1
  117   110   112  1
  118   110   111  1
  119   110   113  1
  120   113   116  1
  121   113   114  1
  122   113   115  1
  123   116   117  1
  124   116   119  1
  125   116   118  1
  126   119   122  1
  127   119   120  1
  128   119   121  1
  129   122   124  1
  130   122   125  1
  131   122   123  1
  132   124   128  1
  133   124   129  1
  134   124   130  1
  135   128   131  1
  136   128   132  1
  137   128   133  1
  138   131   136 -1
  139   131   137 -1
  140   131   138 -1
  141   136   139 -1
  142   136   140 -1
  143   136   141 -1
  144   142   145 -1
  145   142   146 -1
  146   142   147 -1

@<TRIPOS>SUBSTRUCTURE
1 ****        1 TEMP                        0 ****  **** 0 ROOT
