@<TRIPOS>MOLECULE
generated by VMD
  127  126    1    0    0
SMALL
NO_CHARGES
****
Energy = 0

@<TRIPOS>ATOM
      1  C        -31.2735  -47.0324   65.6124    C    1  POPC         0.000000
      2  C11      -30.5456  -46.2503   66.7314  C11    1  POPC         0.000000
      3  H12      -31.3990  -46.2723   64.3875  H12    1  POPC         0.000000
      4  H13      -32.6832  -47.4461   66.0306  H13    1  POPC         0.000000
      5  O14      -30.6390  -48.3131   65.2941  O14    1  POPC         0.000000
      6  O16      -29.7819  -45.6059   66.1354  O16    1  POPC         0.000000
      7  H17      -30.0242  -46.9392   67.4072  H17    1  POPC         0.000000
      8  C15      -31.4409  -45.1708   67.5287  C15    1  POPC         0.000000
      9  H51      -32.1205  -45.8622   68.0987  H51    1  POPC         0.000000
     10  H52      -30.7610  -44.5196   68.1297  H52    1  POPC         0.000000
     11  P1       -33.5165  -43.8226   67.0993   P1    1  POPC         0.000000
     12  O3       -33.6535  -43.2479   68.4364   O3    1  POPC         0.000000
     13  O4       -34.3971  -44.9509   66.7783   O4    1  POPC         0.000000
     14  O1       -32.0414  -44.2529   66.6950   O1    1  POPC         0.000000
     15  O2       -33.7541  -42.7215   65.9595   O2    1  POPC         0.000000
     16  C1       -33.5133  -42.9322   64.6014   C1    1  POPC         0.000000
     17  HA       -32.4585  -42.6657   64.3543   HA    1  POPC         0.000000
     18  HB       -33.7059  -43.9492   64.2773   HB    1  POPC         0.000000
     19  C2       -34.3798  -42.0074   63.6638   C2    1  POPC         0.000000
     20  HS       -35.4007  -42.1449   63.9569   HS    1  POPC         0.000000
     21  O21      -34.2020  -42.3181   62.2097  O21    1  POPC         0.000000
     22  C21      -35.0344  -41.7283   61.3549  C21    1  POPC         0.000000
     23  O22      -36.0626  -41.1208   61.6762  O22    1  POPC         0.000000
     24  C22      -34.3746  -41.7018   59.9628  C22    1  POPC         0.000000
     25  H2R      -33.8430  -40.7965   59.7699  H2R    1  POPC         0.000000
     26  H2S      -33.7543  -42.5525   59.7576  H2S    1  POPC         0.000000
     27  C3       -34.0834  -40.4723   63.8790   C3    1  POPC         0.000000
     28  HX       -34.6158  -39.9004   63.1111   HX    1  POPC         0.000000
     29  HY       -34.4844  -40.2456   64.8680   HY    1  POPC         0.000000
     30  O31      -32.6755  -40.2767   63.8607  O31    1  POPC         0.000000
     31  C31      -32.2820  -39.0826   64.1249  C31    1  POPC         0.000000
     32  O32      -33.0213  -38.1349   64.3011  O32    1  POPC         0.000000
     33  C32      -30.7250  -39.0380   64.1176  C32    1  POPC         0.000000
     34  H2X      -30.3143  -38.1039   64.5757  H2X    1  POPC         0.000000
     35  H2Y      -30.3755  -39.8569   64.7454  H2Y    1  POPC         0.000000
     36  C23      -35.5098  -41.8051   58.8710  C23    1  POPC         0.000000
     37  H3R      -35.9554  -42.7823   58.8919  H3R    1  POPC         0.000000
     38  H3S      -36.3301  -41.0814   58.9543  H3S    1  POPC         0.000000
     39  C24      -34.8740  -41.9146   57.4529  C24    1  POPC         0.000000
     40  H4R      -34.2784  -41.0163   57.3919  H4R    1  POPC         0.000000
     41  H4S      -34.1267  -42.7213   57.4356  H4S    1  POPC         0.000000
     42  C25      -35.7062  -42.0577   56.1960  C25    1  POPC         0.000000
     43  H5R      -36.3308  -42.9680   56.2959  H5R    1  POPC         0.000000
     44  H5S      -36.4605  -41.1920   56.1363  H5S    1  POPC         0.000000
     45  C26      -34.9444  -42.1262   54.8768  C26    1  POPC         0.000000
     46  H6R      -34.4538  -41.1530   54.7369  H6R    1  POPC         0.000000
     47  H6S      -34.1730  -42.9729   54.9426  H6S    1  POPC         0.000000
     48  C27      -35.7885  -42.3473   53.6110  C27    1  POPC         0.000000
     49  H7R      -36.1351  -43.4225   53.5908  H7R    1  POPC         0.000000
     50  H7S      -36.7678  -41.7127   53.6292  H7S    1  POPC         0.000000
     51  C28      -35.0959  -41.8448   52.3249  C28    1  POPC         0.000000
     52  H8R      -35.1094  -40.6899   52.5021  H8R    1  POPC         0.000000
     53  H8S      -34.0248  -42.2174   52.1637  H8S    1  POPC         0.000000
     54  C29      -35.9540  -42.2260   51.0790  C29    1  POPC         0.000000
     55  H91      -36.9231  -41.6861   50.9381  H91    1  POPC         0.000000
     56 C210      -35.6100  -43.0390   49.9990 C210    1  POPC         0.000000
     57 H101      -36.4150  -43.1060   49.3000 H101    1  POPC         0.000000
     58 C211      -34.3420  -43.8300   49.7290 C211    1  POPC         0.000000
     59 H11R      -33.4890  -43.6020   50.4810 H11R    1  POPC         0.000000
     60 H11S      -34.5680  -44.8230   49.9690 H11S    1  POPC         0.000000
     61 C212      -33.7370  -43.5830   48.4010 C212    1  POPC         0.000000
     62 H12R      -33.4150  -42.5310   48.3060 H12R    1  POPC         0.000000
     63 H12S      -32.8790  -44.2250   48.2300 H12S    1  POPC         0.000000
     64 C213      -34.5940  -43.8210   47.1770 C213    1  POPC         0.000000
     65 H13R      -34.8770  -44.8860   47.1330 H13R    1  POPC         0.000000
     66 H13S      -35.5230  -43.1690   47.1510 H13S    1  POPC         0.000000
     67 C214      -33.8340  -43.4050   45.9310 C214    1  POPC         0.000000
     68 H14R      -33.6920  -42.3550   46.0160 H14R    1  POPC         0.000000
     69 H14S      -32.9090  -43.9390   45.9240 H14S    1  POPC         0.000000
     70 C215      -34.5050  -43.7640   44.6020 C215    1  POPC         0.000000
     71 H15R      -34.6460  -44.8680   44.5040 H15R    1  POPC         0.000000
     72 H15S      -35.4600  -43.2570   44.7640 H15S    1  POPC         0.000000
     73 C216      -33.7700  -43.2240   43.3250 C216    1  POPC         0.000000
     74 H16R      -34.0310  -42.1660   43.1670 H16R    1  POPC         0.000000
     75 H16S      -32.6740  -43.3120   43.4170 H16S    1  POPC         0.000000
     76 C217      -34.1600  -43.9340   42.0190 C217    1  POPC         0.000000
     77 H17R      -34.2550  -45.0810   42.1760 H17R    1  POPC         0.000000
     78 H17S      -35.1770  -43.4920   41.6960 H17S    1  POPC         0.000000
     79 C218      -33.1490  -43.7770   40.9220 C218    1  POPC         0.000000
     80 C18R      -33.4650  -44.4730   40.1120   C1    1  POPC         0.000000
     81 H18S      -33.1280  -42.7550   40.5890 H18S    1  POPC         0.000000
     82 H18T      -32.2080  -44.1420   41.3530 H18T    1  POPC         0.000000
     83  C33      -30.1012  -39.2365   62.7014  C33    1  POPC         0.000000
     84  H3X      -30.3246  -38.2885   62.1526  H3X    1  POPC         0.000000
     85  H3Y      -28.9762  -39.1770   62.7653  H3Y    1  POPC         0.000000
     86  C34      -30.5238  -40.4515   61.8543  C34    1  POPC         0.000000
     87  H4X      -30.3833  -41.4106   62.4301  H4X    1  POPC         0.000000
     88  H4Y      -31.6269  -40.3559   61.5495  H4Y    1  POPC         0.000000
     89  C35      -29.8131  -40.4110   60.4862  C35    1  POPC         0.000000
     90  H5X      -29.7975  -39.4169   60.0494  H5X    1  POPC         0.000000
     91  H5Y      -28.7200  -40.6346   60.6050  H5Y    1  POPC         0.000000
     92  C36      -30.4009  -41.3531   59.4182  C36    1  POPC         0.000000
     93  H6X      -30.2164  -42.4181   59.7890  H6X    1  POPC         0.000000
     94  H6Y      -31.5299  -41.2295   59.3394  H6Y    1  POPC         0.000000
     95  C37      -29.9112  -41.2337   58.0231  C37    1  POPC         0.000000
     96  H7X      -30.0627  -40.1637   57.6983  H7X    1  POPC         0.000000
     97  H7Y      -28.8431  -41.3912   57.8909  H7Y    1  POPC         0.000000
     98  C38      -30.5851  -41.9837   56.8781  C38    1  POPC         0.000000
     99  H8X      -30.5616  -43.0258   57.2299  H8X    1  POPC         0.000000
    100  H8Y      -31.6232  -41.5872   57.0073  H8Y    1  POPC         0.000000
    101  C39      -29.8804  -41.7512   55.4560  C39    1  POPC         0.000000
    102  H9X      -29.9179  -40.6342   55.2002  H9X    1  POPC         0.000000
    103  H9Y      -28.8332  -42.2098   55.5527  H9Y    1  POPC         0.000000
    104 C310      -30.5294  -42.3383   54.2150 C310    1  POPC         0.000000
    105 H10X      -30.6629  -43.4254   54.3649 H10X    1  POPC         0.000000
    106 H10Y      -31.3796  -41.8006   54.0333 H10Y    1  POPC         0.000000
    107 C311      -29.6147  -42.0897   53.0119 C311    1  POPC         0.000000
    108 H11X      -29.2552  -40.9926   52.9600 H11X    1  POPC         0.000000
    109 H11Y      -28.7534  -42.7354   53.0936 H11Y    1  POPC         0.000000
    110 C312      -30.4139  -42.2428   51.6040 C312    1  POPC         0.000000
    111 H12X      -30.8955  -43.2300   51.6159 H12X    1  POPC         0.000000
    112 H12Y      -31.2652  -41.5262   51.6313 H12Y    1  POPC         0.000000
    113 C313      -29.4352  -42.0062   50.4049 C313    1  POPC         0.000000
    114 H13X      -29.3107  -40.8952   50.4530 H13X    1  POPC         0.000000
    115 H13Y      -28.4680  -42.4829   50.7306 H13Y    1  POPC         0.000000
    116 C314      -29.9652  -42.4982   49.0679 C314    1  POPC         0.000000
    117 H14X      -30.0228  -43.6553   49.0077 H14X    1  POPC         0.000000
    118 H14Y      -31.0125  -42.0126   49.0062 H14Y    1  POPC         0.000000
    119  H        -29.5413  -42.3658   48.1719    H    1  POPC         0.000000
    120  C        -32.7335  -45.1346   39.9475   C1    1  POPC         0.000000
    121  H        -33.6416  -43.9462   39.2806    H    1  POPC         0.000000
    122  H        -34.2970  -44.9486   40.3976    H    1  POPC         0.000000
    123  H        -32.4285  -45.0536   38.9986    H    1  POPC         0.000000
    124  H        -33.0839  -46.0560   40.1156    H    1  POPC         0.000000
    125  H        -31.9734  -44.9405   40.5677    H    1  POPC         0.000000
    126  H18      -29.1641  -44.9877   66.6213  H18    1  POPC         0.000000
    127  H        -29.8368  -48.4329   65.8799    H    1  POPC         0.000000
@<TRIPOS>BOND
    1     1     5  1
    2     1     4  1
    3     1     2  1
    4     1     3  1
    5     2     7  1
    6     2     6  1
    7     2     8  1
    8     5   127  1
    9     6   126  1
   10     8     9  1
   11     8    10  1
   12     8    14  1
   13    11    15  1
   14    11    14  1
   15    11    12  1
   16    11    13  1
   17    15    16  1
   18    16    18  1
   19    16    17  1
   20    16    19  1
   21    19    21  1
   22    19    20  1
   23    19    27  1
   24    21    22  1
   25    22    24  1
   26    22    23  1
   27    24    26  1
   28    24    25  1
   29    24    36  1
   30    27    29  1
   31    27    30  1
   32    27    28  1
   33    30    31  1
   34    31    33  1
   35    31    32  1
   36    33    83  1
   37    33    35  1
   38    33    34  1
   39    36    39  1
   40    36    38  1
   41    36    37  1
   42    39    41  1
   43    39    40  1
   44    39    42  1
   45    42    43  1
   46    42    44  1
   47    42    45  1
   48    45    47  1
   49    45    46  1
   50    45    48  1
   51    48    51  1
   52    48    49  1
   53    48    50  1
   54    51    53  1
   55    51    52  1
   56    51    54  1
   57    54    56  2
   58    54    55  1
   59    56    57  1
   60    56    58  1
   61    58    61  1
   62    58    59  1
   63    58    60  1
   64    61    64  1
   65    61    62  1
   66    61    63  1
   67    64    67  1
   68    64    66  1
   69    64    65  1
   70    67    70  1
   71    67    69  1
   72    67    68  1
   73    70    73  1
   74    70    72  1
   75    70    71  1
   76    73    76  1
   77    73    75  1
   78    73    74  1
   79    76    78  1
   80    76    79  1
   81    76    77  1
   82    79    80  1
   83    79    81  1
   84    79    82  1
   85    80   120 -1
   86    80   121 -1
   87    80   122 -1
   88    83    84  1
   89    83    85  1
   90    83    86  1
   91    86    88  1
   92    86    89  1
   93    86    87  1
   94    89    92  1
   95    89    91  1
   96    89    90  1
   97    92    94  1
   98    92    95  1
   99    92    93  1
  100    95    98  1
  101    95    97  1
  102    95    96  1
  103    98   100  1
  104    98    99  1
  105    98   101  1
  106   101   104  1
  107   101   102  1
  108   101   103  1
  109   104   106  1
  110   104   105  1
  111   104   107  1
  112   107   110  1
  113   107   108  1
  114   107   109  1
  115   110   112  1
  116   110   111  1
  117   110   113  1
  118   113   116  1
  119   113   114  1
  120   113   115  1
  121   116   117  1
  122   116   118  1
  123   116   119 -1
  124   120   123 -1
  125   120   124 -1
  126   120   125 -1

@<TRIPOS>SUBSTRUCTURE
1 ****        1 TEMP                        0 ****  **** 0 ROOT
