@<TRIPOS>MOLECULE
generated by VMD
  119  118    1    0    0
SMALL
NO_CHARGES
****
Energy = 0

@<TRIPOS>ATOM
      1  C        -33.4731  -54.7744   61.4268    C    1  POPC         0.000000
      2  C11      -32.4573  -55.0815   62.5521  C11    1  POPC         0.000000
      3  H12      -33.1860  -53.5365   60.7349  H12    1  POPC         0.000000
      4  H13      -34.9001  -54.6724   61.9597  H13    1  POPC         0.000000
      5  O14      -33.5732  -55.8424   60.4298  O14    1  POPC         0.000000
      6  O16      -31.4672  -54.6386   62.1282  O16    1  POPC         0.000000
      7  H17      -32.3615  -56.1636   62.7011  H17    1  POPC         0.000000
      8  C15      -32.6854  -54.2895   63.9390  C15    1  POPC         0.000000
      9  H51      -33.6265  -54.7914   64.2978  H51    1  POPC         0.000000
     10  H52      -31.7735  -54.4106   64.5712  H52    1  POPC         0.000000
     11  P1       -33.7873  -52.1574   64.6819   P1    1  POPC         0.000000
     12  O3       -33.6236  -52.3475   66.1219   O3    1  POPC         0.000000
     13  O4       -35.1163  -52.4444   64.1317   O4    1  POPC         0.000000
     14  O1       -32.7324  -52.9224   63.7729   O1    1  POPC         0.000000
     15  O2       -33.4252  -50.6605   64.2418   O2    1  POPC         0.000000
     16  C1       -33.3150  -50.2354   62.9179   C1    1  POPC         0.000000
     17  HA       -32.2689  -50.3776   62.5560   HA    1  POPC         0.000000
     18  HB       -33.9949  -50.7415   62.2398   HB    1  POPC         0.000000
     19  C2       -33.5868  -48.6934   62.7329   C2    1  POPC         0.000000
     20  HS       -34.5379  -48.4934   63.1818   HS    1  POPC         0.000000
     21  O21      -33.5806  -48.2665   61.2979  O21    1  POPC         0.000000
     22  C21      -33.9925  -47.0304   61.0278  C21    1  POPC         0.000000
     23  O22      -34.5726  -46.2884   61.8307  O22    1  POPC         0.000000
     24  C22      -33.4012  -46.5965   59.6729  C22    1  POPC         0.000000
     25  H2R      -32.4823  -46.0626   59.7710  H2R    1  POPC         0.000000
     26  H2S      -33.2962  -47.3974   58.9669  H2S    1  POPC         0.000000
     27  C3       -32.5539  -47.7956   63.5180   C3    1  POPC         0.000000
     28  HX       -32.7167  -46.7475   63.2410   HX    1  POPC         0.000000
     29  HY       -32.7910  -47.9505   64.5710   HY    1  POPC         0.000000
     30  O31      -31.2409  -48.2606   63.2342  O31    1  POPC         0.000000
     31  C31      -30.2969  -47.6827   63.8872  C31    1  POPC         0.000000
     32  O32      -30.4550  -46.7426   64.6412  O32    1  POPC         0.000000
     33  C32      -28.9329  -48.3318   63.5085  C32    1  POPC         0.000000
     34  H2X      -28.1080  -48.0518   64.2106  H2X    1  POPC         0.000000
     35  H2Y      -29.0519  -49.4108   63.6025  H2Y    1  POPC         0.000000
     36  C23      -34.4242  -45.6204   58.9718  C23    1  POPC         0.000000
     37  H3R      -35.3032  -46.1594   58.6727  H3R    1  POPC         0.000000
     38  H3S      -34.7641  -44.7644   59.5678  H3S    1  POPC         0.000000
     39  C24      -33.9220  -45.2645   57.5408  C24    1  POPC         0.000000
     40  H4R      -32.9529  -44.8305   57.7329  H4R    1  POPC         0.000000
     41  H4S      -33.6869  -46.1834   56.9828  H4S    1  POPC         0.000000
     42  C25      -34.7027  -44.3684   56.6028  C25    1  POPC         0.000000
     43  H5R      -35.7028  -44.8183   56.4466  H5R    1  POPC         0.000000
     44  H5S      -34.9128  -43.3634   57.1217  H5S    1  POPC         0.000000
     45  C26      -34.0715  -44.0874   55.2428  C26    1  POPC         0.000000
     46  H6R      -33.1536  -43.5115   55.4269  H6R    1  POPC         0.000000
     47  H6S      -33.8366  -45.0884   54.7338  H6S    1  POPC         0.000000
     48  C27      -34.9025  -43.2384   54.2667  C27    1  POPC         0.000000
     49  H7R      -35.7464  -43.8734   53.8646  H7R    1  POPC         0.000000
     50  H7S      -35.4253  -42.3463   54.8077  H7S    1  POPC         0.000000
     51  C28      -34.0421  -42.5204   53.2038  C28    1  POPC         0.000000
     52  H8R      -33.4683  -41.7485   53.8679  H8R    1  POPC         0.000000
     53  H8S      -33.3072  -43.1875   52.6319  H8S    1  POPC         0.000000
     54  C29      -34.9660  -41.7954   52.1777  C29    1  POPC         0.000000
     55  H91      -35.5261  -40.8963   52.5367  H91    1  POPC         0.000000
     56 C210      -35.0748  -42.0033   50.8027 C210    1  POPC         0.000000
     57 H101      -35.7970  -41.3445   50.3727 H101    1  POPC         0.000000
     58 C211      -34.3804  -43.0111   49.9037 C211    1  POPC         0.000000
     59 H11R      -33.5343  -43.5969   50.4377 H11R    1  POPC         0.000000
     60 H11S      -35.0792  -43.7703   49.7316 H11S    1  POPC         0.000000
     61 C212      -33.7255  -42.4218   48.7138 C212    1  POPC         0.000000
     62 H12R      -32.9137  -41.7346   49.0129 H12R    1  POPC         0.000000
     63 H12S      -33.3102  -43.1887   48.0688 H12S    1  POPC         0.000000
     64 C213      -34.5766  -41.6020   47.7698 C213    1  POPC         0.000000
     65 H13R      -35.3603  -42.2452   47.3356 H13R    1  POPC         0.000000
     66 H13S      -35.0470  -40.6962   48.2678 H13S    1  POPC         0.000000
     67 C214      -33.7027  -40.9976   46.6859 C214    1  POPC         0.000000
     68 H14R      -33.0490  -40.3234   47.1851 H14R    1  POPC         0.000000
     69 H14S      -33.1763  -41.7964   46.2129 H14S    1  POPC         0.000000
     70 C215      -34.4548  -40.2957   45.5509 C215    1  POPC         0.000000
     71 H15R      -35.1354  -41.0029   45.0177 H15R    1  POPC         0.000000
     72 H15S      -35.0221  -39.5820   46.1539 H15S    1  POPC         0.000000
     73 C216      -33.5399  -39.5723   44.5021 C216    1  POPC         0.000000
     74 H16R      -33.2273  -38.5923   44.8963 H16R    1  POPC         0.000000
     75 H16S      -32.6396  -40.1660   44.2672 H16S    1  POPC         0.000000
     76  H        -33.7711  -39.3108   43.5650    H    1  POPC         0.000000
     77  H        -29.3259  -42.2519   45.6947    H    1  POPC         0.000000
     78  C33      -28.4867  -48.0378   62.0426  C33    1  POPC         0.000000
     79  H3X      -28.1945  -46.9589   62.0416  H3X    1  POPC         0.000000
     80  H3Y      -27.4877  -48.5219   61.8407  H3Y    1  POPC         0.000000
     81  C34      -29.4615  -48.3238   60.8853  C34    1  POPC         0.000000
     82  H4X      -29.8306  -49.3888   60.9254  H4X    1  POPC         0.000000
     83  H4Y      -30.3616  -47.6126   60.9422  H4Y    1  POPC         0.000000
     84  C35      -28.8194  -47.9148   59.5445  C35    1  POPC         0.000000
     85  H5X      -28.2983  -46.9639   59.5996  H5X    1  POPC         0.000000
     86  H5Y      -27.9915  -48.6219   59.2736  H5Y    1  POPC         0.000000
     87  C36      -29.7963  -47.8138   58.3573  C36    1  POPC         0.000000
     88  H6X      -30.1803  -48.8737   58.1632  H6X    1  POPC         0.000000
     89  H6Y      -30.7062  -47.1847   58.6272  H6Y    1  POPC         0.000000
     90  C37      -29.3040  -47.2348   57.0834  C37    1  POPC         0.000000
     91  H7X      -28.8890  -46.2108   57.3104  H7X    1  POPC         0.000000
     92  H7Y      -28.4629  -47.7558   56.6316  H7Y    1  POPC         0.000000
     93  C38      -30.2569  -46.9158   55.9363  C38    1  POPC         0.000000
     94  H8X      -30.7679  -47.8766   55.7762  H8X    1  POPC         0.000000
     95  H8Y      -30.9519  -46.2297   56.4821  H8Y    1  POPC         0.000000
     96  C39      -29.5227  -46.3338   54.6343  C39    1  POPC         0.000000
     97  H9X      -28.9854  -45.3599   54.9124  H9X    1  POPC         0.000000
     98 C310      -30.3705  -45.8556   53.4694 C310    1  POPC         0.000000
     99 H10X      -31.0388  -46.6793   53.1555 H10X    1  POPC         0.000000
    100 C311      -29.4483  -45.4660   52.3103 C311    1  POPC         0.000000
    101 H11X      -28.5810  -44.7854   52.6561 H11X    1  POPC         0.000000
    102 H11Y      -29.0348  -46.3663   51.8803 H11Y    1  POPC         0.000000
    103 C312      -30.2050  -44.5149   51.2301 C312    1  POPC         0.000000
    104 H12X      -31.1202  -45.0404   50.9282 H12X    1  POPC         0.000000
    105 H12Y      -30.5737  -43.6227   51.7821 H12Y    1  POPC         0.000000
    106 C313      -29.2318  -44.1643   50.0531 C313    1  POPC         0.000000
    107 H13X      -28.5616  -43.4196   50.5510 H13X    1  POPC         0.000000
    108 H13Y      -28.6443  -45.1096   49.8812 H13Y    1  POPC         0.000000
    109 C314      -29.9296  -43.6203   48.8170 C314    1  POPC         0.000000
    110 H14X      -30.5660  -44.4220   48.2722 H14X    1  POPC         0.000000
    111 H14Y      -30.5842  -42.7659   49.2410 H14Y    1  POPC         0.000000
    112 C315      -28.9635  -43.1028   47.8390 C315    1  POPC         0.000000
    113 H15X      -28.4211  -42.2129   48.2809 H15X    1  POPC         0.000000
    114 H15Y      -28.2489  -43.8791   47.6460 H15Y    1  POPC         0.000000
    115 C316      -29.6523  -42.5206   46.6009 C316    1  POPC         0.000000
    116 H16X      -29.9568  -41.5044   46.7959 H16X    1  POPC         0.000000
    117 H16Z      -30.4286  -43.2773   46.2560 H16Z    1  POPC         0.000000
    118  H18      -30.6243  -54.6976   62.6633  H18    1  POPC         0.000000
    119  H        -32.9472  -56.5815   60.6810    H    1  POPC         0.000000
@<TRIPOS>BOND
    1     1     5  1
    2     1     4  1
    3     1     2  1
    4     1     3  1
    5     2     7  1
    6     2     6  1
    7     2     8  1
    8     5   119  1
    9     6   118  1
   10     8     9  1
   11     8    10  1
   12     8    14  1
   13    11    15  1
   14    11    14  1
   15    11    12  1
   16    11    13  1
   17    15    16  1
   18    16    18  1
   19    16    17  1
   20    16    19  1
   21    19    21  1
   22    19    20  1
   23    19    27  1
   24    21    22  1
   25    22    24  1
   26    22    23  1
   27    24    26  1
   28    24    25  1
   29    24    36  1
   30    27    29  1
   31    27    30  1
   32    27    28  1
   33    30    31  1
   34    31    33  1
   35    31    32  1
   36    33    78  1
   37    33    35  1
   38    33    34  1
   39    36    39  1
   40    36    38  1
   41    36    37  1
   42    39    41  1
   43    39    40  1
   44    39    42  1
   45    42    43  1
   46    42    44  1
   47    42    45  1
   48    45    47  1
   49    45    46  1
   50    45    48  1
   51    48    51  1
   52    48    49  1
   53    48    50  1
   54    51    53  1
   55    51    52  1
   56    51    54  1
   57    54    56  2
   58    54    55  1
   59    56    57  1
   60    56    58  1
   61    58    61  1
   62    58    59  1
   63    58    60  1
   64    61    64  1
   65    61    62  1
   66    61    63  1
   67    64    67  1
   68    64    66  1
   69    64    65  1
   70    67    70  1
   71    67    69  1
   72    67    68  1
   73    70    73  1
   74    70    72  1
   75    70    71  1
   76    73    75  1
   77    73    74  1
   78    73    76 -1
   79    77   115 -1
   80    78    79  1
   81    78    80  1
   82    78    81  1
   83    81    83  1
   84    81    84  1
   85    81    82  1
   86    84    87  1
   87    84    86  1
   88    84    85  1
   89    87    89  1
   90    87    90  1
   91    87    88  1
   92    90    93  1
   93    90    92  1
   94    90    91  1
   95    93    95  1
   96    93    94  1
   97    93    96  1
   98    96    98  2
   99    96    97  1
  100    98    99  1
  101    98   100  1
  102   100   103  1
  103   100   101  1
  104   100   102  1
  105   103   105  1
  106   103   104  1
  107   103   106  1
  108   106   109  1
  109   106   107  1
  110   106   108  1
  111   109   110  1
  112   109   112  1
  113   109   111  1
  114   112   115  1
  115   112   113  1
  116   112   114  1
  117   115   117  1
  118   115   116  1

@<TRIPOS>SUBSTRUCTURE
1 ****        1 TEMP                        0 ****  **** 0 ROOT
