@<TRIPOS>MOLECULE
generated by VMD
  137  137    1    0    0
SMALL
NO_CHARGES
****
Energy = 0

@<TRIPOS>ATOM
      1  C        -30.9187  -46.7038   70.1229    C    1  POPC         0.000000
      2  C11      -30.1701  -46.8075   68.7733  C11    1  POPC         0.000000
      3  H12      -31.9523  -47.7053   70.2696  H12    1  POPC         0.000000
      4  H        -29.5510  -44.0577   69.4771    H    1  POPC         0.000000
      5  O14      -30.0313  -46.7871   71.2844  O14    1  POPC         0.000000
      6  O16      -30.4255  -47.8885   68.4234  O16    1  POPC         0.000000
      7  H17      -29.0891  -46.6971   68.9218  H17    1  POPC         0.000000
      8  C15      -30.7250  -45.8645   67.5878  C15    1  POPC         0.000000
      9  C51      -30.5867  -44.8525   68.0617  C51    1  POPC         0.000000
     10  H52      -30.1396  -46.0750   66.6622  H52    1  POPC         0.000000
     11  P1       -32.6430  -47.4514   67.9282   P1    1  POPC         0.000000
     12  O3       -32.7257  -47.3451   69.3842   O3    1  POPC         0.000000
     13  O4       -31.9794  -48.6469   67.3968   O4    1  POPC         0.000000
     14  O1       -32.0030  -46.1969   67.1933   O1    1  POPC         0.000000
     15  O2       -34.0946  -47.3968   67.2515   O2    1  POPC         0.000000
     16  C1       -34.3179  -47.2960   65.8784   C1    1  POPC         0.000000
     17  HA       -34.3602  -46.2220   65.5761   HA    1  POPC         0.000000
     18  HB       -33.5699  -47.8025   65.2768   HB    1  POPC         0.000000
     19  C2       -35.7090  -47.8843   65.4268   C2    1  POPC         0.000000
     20  HS       -35.7567  -48.8832   65.8090   HS    1  POPC         0.000000
     21  O21      -35.8932  -47.8775   63.9417  O21    1  POPC         0.000000
     22  C21      -36.9454  -48.5301   63.4553  C21    1  POPC         0.000000
     23  O22      -37.6551  -49.3086   64.1041  O22    1  POPC         0.000000
     24  C22      -37.2814  -47.9592   62.0641  C22    1  POPC         0.000000
     25  H2R      -38.0180  -47.1878   62.0965  H2R    1  POPC         0.000000
     26  H2S      -36.4239  -47.6358   61.5064  H2S    1  POPC         0.000000
     27  C3       -36.9299  -47.1266   66.0780   C3    1  POPC         0.000000
     28  HX       -37.8569  -47.4952   65.6237   HX    1  POPC         0.000000
     29  HY       -36.8936  -47.3924   67.1361   HY    1  POPC         0.000000
     30  O31      -36.7351  -45.7277   65.9158  O31    1  POPC         0.000000
     31  C31      -37.6070  -44.9781   66.4883  C31    1  POPC         0.000000
     32  O32      -38.5945  -45.3865   67.0668  O32    1  POPC         0.000000
     33  C32      -37.2321  -43.4834   66.2641  C32    1  POPC         0.000000
     34  H2X      -37.7991  -42.7879   66.9317  H2X    1  POPC         0.000000
     35  H2Y      -36.1832  -43.3699   66.5366  H2Y    1  POPC         0.000000
     36  C23      -37.8775  -49.1221   61.1790  C23    1  POPC         0.000000
     37  H3R      -37.1128  -49.8415   60.9505  H3R    1  POPC         0.000000
     38  H3S      -38.7170  -49.6796   61.6107  H3S    1  POPC         0.000000
     39  C24      -38.1065  -48.6163   59.7228  C24    1  POPC         0.000000
     40  H4R      -38.7722  -47.7799   59.8663  H4R    1  POPC         0.000000
     41  H4S      -37.1871  -48.1508   59.3361  H4S    1  POPC         0.000000
     42  C25      -38.6425  -49.5102   58.6247  C25    1  POPC         0.000000
     43  H5R      -37.9589  -50.3766   58.5192  H5R    1  POPC         0.000000
     44  H5S      -39.6429  -49.9686   58.9593  H5S    1  POPC         0.000000
     45  C26      -38.8395  -48.8684   57.2565  C26    1  POPC         0.000000
     46  H6R      -39.6291  -48.1120   57.3659  H6R    1  POPC         0.000000
     47  H6S      -37.8501  -48.3880   56.9309  H6S    1  POPC         0.000000
     48  C27      -39.3124  -49.7974   56.1264  C27    1  POPC         0.000000
     49  H7R      -38.4486  -50.4549   55.8140  H7R    1  POPC         0.000000
     50  H7S      -40.1390  -50.5369   56.4932  H7S    1  POPC         0.000000
     51  C28      -40.0294  -49.0463   54.9829  C28    1  POPC         0.000000
     52  H8R      -41.0065  -48.6996   55.5224  H8R    1  POPC         0.000000
     53  H8S      -39.4628  -48.1476   54.5530  H8S    1  POPC         0.000000
     54  C29      -40.3554  -50.0373   53.8230  C29    1  POPC         0.000000
     55  H91      -41.1486  -50.8021   54.0089  H91    1  POPC         0.000000
     56 C210      -39.9130  -50.0066   52.5001 C210    1  POPC         0.000000
     57 H101      -40.3151  -50.8256   51.9451 H101    1  POPC         0.000000
     58 C211      -38.9585  -49.0520   51.8042 C211    1  POPC         0.000000
     59 H11R      -38.6704  -48.1350   52.4542 H11R    1  POPC         0.000000
     60 H11S      -38.0437  -49.5563   51.7425 H11S    1  POPC         0.000000
     61 C212      -39.4850  -48.4630   50.5530 C212    1  POPC         0.000000
     62 H12R      -40.3759  -47.8427   50.7547 H12R    1  POPC         0.000000
     63 H12S      -38.7397  -47.8493   50.0591 H12S    1  POPC         0.000000
     64 C213      -39.9310  -49.4090   49.4590 C213    1  POPC         0.000000
     65 H13R      -39.0670  -50.0020   49.1170 H13R    1  POPC         0.000000
     66 H13S      -40.7740  -50.0970   49.7820 H13S    1  POPC         0.000000
     67 C214      -40.5390  -48.6180   48.3150 C214    1  POPC         0.000000
     68 H14R      -41.4130  -48.1620   48.7120 H14R    1  POPC         0.000000
     69 H14S      -39.8150  -47.8990   47.9990 H14S    1  POPC         0.000000
     70 C215      -40.8640  -49.4280   47.0560 C215    1  POPC         0.000000
     71 H15R      -39.9460  -49.9000   46.6300 H15R    1  POPC         0.000000
     72 H15S      -41.5170  -50.1760   47.5130 H15S    1  POPC         0.000000
     73 C216      -41.6010  -48.6250   45.9280 C216    1  POPC         0.000000
     74 H16R      -42.6750  -48.5610   46.1590 H16R    1  POPC         0.000000
     75 H16S      -41.1960  -47.6040   45.8220 H16S    1  POPC         0.000000
     76 C217      -41.5270  -49.2720   44.5360 C217    1  POPC         0.000000
     77 H17R      -40.4690  -49.7020   44.3270 H17R    1  POPC         0.000000
     78 H17S      -42.3100  -50.1220   44.5270 H17S    1  POPC         0.000000
     79 C218      -41.7840  -48.3140   43.4100 C218    1  POPC         0.000000
     80 H18R      -41.5290  -48.8630   42.4760 H18R    1  POPC         0.000000
     81 H18S      -42.8120  -48.0010   43.4250 H18S    1  POPC         0.000000
     82 H18T      -41.0530  -47.5080   43.5560 H18T    1  POPC         0.000000
     83  C33      -37.3831  -43.0156   64.7830  C33    1  POPC         0.000000
     84  H3X      -38.4860  -42.9671   64.6084  H3X    1  POPC         0.000000
     85  H3Y      -37.1115  -41.9247   64.6949  H3Y    1  POPC         0.000000
     86  C34      -36.7040  -43.8272   63.6635  C34    1  POPC         0.000000
     87  H4X      -35.6042  -43.9567   63.8730  H4X    1  POPC         0.000000
     88  H4Y      -37.1935  -44.8619   63.5734  H4Y    1  POPC         0.000000
     89  C35      -37.0300  -43.2023   62.2912  C35    1  POPC         0.000000
     90  H5X      -38.0708  -42.9058   62.1996  H5X    1  POPC         0.000000
     91  H5Y      -36.4954  -42.2246   62.1682  H5Y    1  POPC         0.000000
     92  C36      -36.7188  -44.0967   61.0775  C36    1  POPC         0.000000
     93  H6X      -35.5819  -44.2273   61.0541  H6X    1  POPC         0.000000
     94  H6Y      -37.1595  -45.1385   61.2105  H6Y    1  POPC         0.000000
     95  C37      -37.1840  -43.6608   59.7382  C37    1  POPC         0.000000
     96  H7X      -38.2979  -43.4952   59.8006  H7X    1  POPC         0.000000
     97  H7Y      -36.8013  -42.6980   59.4052  H7Y    1  POPC         0.000000
     98  C38      -37.0938  -44.5831   58.5264  C38    1  POPC         0.000000
     99  H8X      -36.0290  -44.8596   58.5170  H8X    1  POPC         0.000000
    100  H8Y      -37.6825  -45.4447   58.9293  H8Y    1  POPC         0.000000
    101  C39      -37.6128  -43.9091   57.1670  C39    1  POPC         0.000000
    102  H9X      -38.7137  -43.6175   57.2924  H9X    1  POPC         0.000000
    103  H9Y      -36.8863  -43.0465   56.9542  H9Y    1  POPC         0.000000
    104 C310      -37.6957  -44.7623   55.9142 C310    1  POPC         0.000000
    105 H10X      -36.7028  -45.2118   55.7248 H10X    1  POPC         0.000000
    106 H10Y      -38.4701  -45.4169   56.0429 H10Y    1  POPC         0.000000
    107 C311      -38.0956  -43.8733   54.7328 C311    1  POPC         0.000000
    108 H11X      -39.0014  -43.1998   54.9832 H11X    1  POPC         0.000000
    109 H11Y      -37.2561  -43.2448   54.4741 H11Y    1  POPC         0.000000
    110 C312      -38.6674  -44.7463   53.4857 C312    1  POPC         0.000000
    111 H12X      -37.9067  -45.5027   53.2512 H12X    1  POPC         0.000000
    112 H12Y      -39.5289  -45.3368   53.8684 H12Y    1  POPC         0.000000
    113 C313      -39.0374  -43.7983   52.2953 C313    1  POPC         0.000000
    114 H13X      -39.9843  -43.3408   52.6787 H13X    1  POPC         0.000000
    115 H13Y      -38.2360  -43.0078   52.3025 H13Y    1  POPC         0.000000
    116 C314      -39.2081  -44.5145   50.9654 C314    1  POPC         0.000000
    117 H14X      -38.2061  -44.9231   50.5460 H14X    1  POPC         0.000000
    118 H14Y      -39.9467  -45.3671   51.2192 H14Y    1  POPC         0.000000
    119 C315      -39.7691  -43.6225   49.9419 C315    1  POPC         0.000000
    120 H15X      -40.8171  -43.3188   50.2423 H15X    1  POPC         0.000000
    121 H15Y      -39.1546  -42.7448   49.9040 H15Y    1  POPC         0.000000
    122 C316      -39.9768  -44.3386   48.6040 C316    1  POPC         0.000000
    123 H16X      -40.9151  -44.8701   48.6166 H16X    1  POPC         0.000000
    124 H16Y      -40.2270  -43.5617   47.8107 H16Y    1  POPC         0.000000
    125 H16Z      -39.0180  -44.9062   48.3695 H16Z    1  POPC         0.000000
    126  H18      -30.0632  -48.2308   67.5567  H18    1  POPC         0.000000
    127  H19      -29.0892  -46.8986   70.9669  H19    1  POPC         0.000000
    128  H20      -31.2852  -44.2302   67.7102  H20    1  POPC         0.000000
    129  O23      -29.6764  -44.5080   67.8321  O23    1  POPC         0.000000
    130  C42      -30.5895  -45.2992   69.2138  C42    1  POPC         0.000000
    131  H25      -29.2065  -45.1833   67.2625  H25    1  POPC         0.000000
    132  O26      -30.5510  -44.0462   69.4846  O26    1  POPC         0.000000
    133  H27      -29.9777  -45.5735   69.3861  H27    1  POPC         0.000000
    134  C43      -30.9152  -45.6989   70.1277  C43    1  POPC         0.000000
    135  H29      -31.9721  -44.3825   69.3679  H29    1  POPC         0.000000
    136  O30      -30.5152  -45.6991   70.1279  O30    1  POPC         0.000000
    137  H1       -30.0077  -46.6453   70.1234   H1    1  POPC         0.000000
@<TRIPOS>BOND
    1     1   134  1
    2     1     5  1
    3     1     2  1
    4     1     3  1
    5     2     6  1
    6     2     7  1
    7     2     8  1
    8     4   132  1
    9     5   127  1
   10     6   126  1
   11     8     9  1
   12     8    10  1
   13     8    14  1
   14     9   128  1
   15     9   129  1
   16     9   130  1
   17    11    15  1
   18    11    14  1
   19    11    12  1
   20    11    13  1
   21    15    16  1
   22    16    18  1
   23    16    17  1
   24    16    19  1
   25    19    21  1
   26    19    20  1
   27    19    27  1
   28    21    22  1
   29    22    24  1
   30    22    23  1
   31    24    25  1
   32    24    26  1
   33    24    36  1
   34    27    28  1
   35    27    29  1
   36    27    30  1
   37    30    31  1
   38    31    33  1
   39    31    32  1
   40    33    83  1
   41    33    35  1
   42    33    34  1
   43    36    39  1
   44    36    38  1
   45    36    37  1
   46    39    41  1
   47    39    40  1
   48    39    42  1
   49    42    43  1
   50    42    44  1
   51    42    45  1
   52    45    47  1
   53    45    46  1
   54    45    48  1
   55    48    51  1
   56    48    49  1
   57    48    50  1
   58    51    53  1
   59    51    52  1
   60    51    54  1
   61    54    56  2
   62    54    55  1
   63    56    57  1
   64    56    58  1
   65    58    61  1
   66    58    59  1
   67    58    60  1
   68    61    64  1
   69    61    63  1
   70    61    62  1
   71    64    67  1
   72    64    66  1
   73    64    65  1
   74    67    70  1
   75    67    69  1
   76    67    68  1
   77    70    73  1
   78    70    72  1
   79    70    71  1
   80    73    76  1
   81    73    75  1
   82    73    74  1
   83    76    78  1
   84    76    79  1
   85    76    77  1
   86    79    80  1
   87    79    81  1
   88    79    82  1
   89    83    85  1
   90    83    86  1
   91    83    84  1
   92    86    89  1
   93    86    88  1
   94    86    87  1
   95    89    90  1
   96    89    91  1
   97    89    92  1
   98    92    94  1
   99    92    95  1
  100    92    93  1
  101    95    98  1
  102    95    97  1
  103    95    96  1
  104    98   100  1
  105    98    99  1
  106    98   101  1
  107   101   104  1
  108   101   102  1
  109   101   103  1
  110   104   106  1
  111   104   105  1
  112   104   107  1
  113   107   110  1
  114   107   108  1
  115   107   109  1
  116   110   112  1
  117   110   111  1
  118   110   113  1
  119   113   116  1
  120   113   114  1
  121   113   115  1
  122   116   117  1
  123   116   119  1
  124   116   118  1
  125   119   120  1
  126   119   122  1
  127   119   121  1
  128   122   124  1
  129   122   125  1
  130   122   123  1
  131   129   131  1
  132   130   132  1
  133   130   133  1
  134   130   134  1
  135   134   135  1
  136   134   136  1
  137   136   137  1

@<TRIPOS>SUBSTRUCTURE
1 ****        1 TEMP                        0 ****  **** 0 ROOT
