@<TRIPOS>MOLECULE
generated by VMD
  129  129    1    0    0
SMALL
NO_CHARGES
****
Energy = 0

@<TRIPOS>ATOM
      1  C        -45.4757  -51.1299   70.3795    C    1  POPC         0.000000
      2  C11      -44.3448  -50.1639   69.9561  C11    1  POPC         0.000000
      3  H12      -45.3154  -52.4581   69.8302  H12    1  POPC         0.000000
      4  H        -46.3922  -48.2398   70.6930    H    1  POPC         0.000000
      5  O14      -45.6208  -51.2492   71.8316  O14    1  POPC         0.000000
      6  O16      -43.5066  -50.8929   69.6056  O16    1  POPC         0.000000
      7  H17      -44.0030  -49.5694   70.8119  H17    1  POPC         0.000000
      8  C15      -44.6468  -49.2536   68.6596  C15    1  POPC         0.000000
      9  C51      -45.5559  -48.6945   69.0203  C51    1  POPC         0.000000
     10  H52      -43.7389  -48.6495   68.4284  H52    1  POPC         0.000000
     11  P1       -44.5783  -51.5611   67.6678   P1    1  POPC         0.000000
     12  O3       -45.4613  -52.2127   68.6340   O3    1  POPC         0.000000
     13  O4       -43.1393  -51.7847   67.8410   O4    1  POPC         0.000000
     14  O1       -44.7906  -49.9952   67.5060   O1    1  POPC         0.000000
     15  O2       -44.9291  -51.9949   66.1650   O2    1  POPC         0.000000
     16  C1       -44.3791  -51.4033   65.0277   C1    1  POPC         0.000000
     17  HA       -45.0052  -50.5366   64.7072   HA    1  POPC         0.000000
     18  HB       -43.3552  -51.0691   65.1627   HB    1  POPC         0.000000
     19  C2       -44.3618  -52.3579   63.7732   C2    1  POPC         0.000000
     20  HS       -43.8737  -53.2587   64.0817   HS    1  POPC         0.000000
     21  O21      -43.6678  -51.7584   62.5910  O21    1  POPC         0.000000
     22  C21      -43.4306  -52.5579   61.5544  C21    1  POPC         0.000000
     23  O22      -43.5444  -53.7899   61.5720  O22    1  POPC         0.000000
     24  C22      -43.2586  -51.6915   60.2920  C22    1  POPC         0.000000
     25  H2R      -44.1656  -51.5689   59.7428  H2R    1  POPC         0.000000
     26  H2S      -42.7998  -50.7393   60.4756  H2S    1  POPC         0.000000
     27  C3       -45.8087  -52.7974   63.3243   C3    1  POPC         0.000000
     28  HX       -45.7335  -53.3459   62.3776   HX    1  POPC         0.000000
     29  HY       -46.1617  -53.4581   64.1186   HY    1  POPC         0.000000
     30  O31      -46.6319  -51.6406   63.2466  O31    1  POPC         0.000000
     31  C31      -47.8708  -51.8599   62.9866  C31    1  POPC         0.000000
     32  O32      -48.3396  -52.9521   62.7331  O32    1  POPC         0.000000
     33  C32      -48.6461  -50.5091   62.9849  C32    1  POPC         0.000000
     34  H2X      -49.7561  -50.6452   63.0109  H2X    1  POPC         0.000000
     35  H2Y      -48.3872  -49.9876   63.9057  H2Y    1  POPC         0.000000
     36  C23      -42.2364  -52.4118   59.3284  C23    1  POPC         0.000000
     37  H3R      -41.2495  -52.3904   59.7545  H3R    1  POPC         0.000000
     38  H3S      -42.4532  -53.4580   59.0849  H3S    1  POPC         0.000000
     39  C24      -41.9335  -51.5024   58.1000  C24    1  POPC         0.000000
     40  H4R      -42.9134  -51.3477   57.6748  H4R    1  POPC         0.000000
     41  H4S      -41.6387  -50.4971   58.4375  H4S    1  POPC         0.000000
     42  C25      -40.9633  -51.9027   57.0093  C25    1  POPC         0.000000
     43  H5R      -39.9743  -52.0863   57.4755  H5R    1  POPC         0.000000
     44  H5S      -41.2741  -52.9220   56.5768  H5S    1  POPC         0.000000
     45  C26      -40.7903  -50.9223   55.8548  C26    1  POPC         0.000000
     46  H6R      -41.7513  -50.8747   55.3247  H6R    1  POPC         0.000000
     47  H6S      -40.5046  -49.8970   56.2843  H6S    1  POPC         0.000000
     48  C27      -39.7482  -51.2976   54.7881  C27    1  POPC         0.000000
     49  H7R      -38.7163  -51.1412   55.2201  H7R    1  POPC         0.000000
     50  H7S      -39.7960  -52.4338   54.5207  H7S    1  POPC         0.000000
     51  C28      -40.0112  -50.6293   53.4207  C28    1  POPC         0.000000
     52  H8R      -40.9940  -51.1707   53.0929  H8R    1  POPC         0.000000
     53  H8S      -40.1644  -49.4934   53.4502  H8S    1  POPC         0.000000
     54  C29      -38.8420  -50.9546   52.4410  C29    1  POPC         0.000000
     55  H91      -38.7608  -52.0048   52.0696  H91    1  POPC         0.000000
     56 C210      -37.9621  -50.0738   51.8117 C210    1  POPC         0.000000
     57 H101      -37.2701  -50.6030   51.1938 H101    1  POPC         0.000000
     58 C211      -37.8352  -48.5638   51.9211 C211    1  POPC         0.000000
     59 H11R      -38.6992  -48.0726   52.5190 H11R    1  POPC         0.000000
     60 H11S      -37.0212  -48.3905   52.5549 H11S    1  POPC         0.000000
     61 C212      -37.8375  -47.8532   50.6228 C212    1  POPC         0.000000
     62 H12R      -38.7965  -47.9995   50.0960 H12R    1  POPC         0.000000
     63 H12S      -37.6715  -46.7902   50.7524 H12S    1  POPC         0.000000
     64 C213      -36.7906  -48.2435   49.6019 C213    1  POPC         0.000000
     65 H13R      -35.7885  -48.0273   50.0076 H13R    1  POPC         0.000000
     66 H13S      -36.8585  -49.3316   49.2873 H13S    1  POPC         0.000000
     67 C214      -37.0308  -47.4860   48.3076 C214    1  POPC         0.000000
     68 H14R      -37.9688  -47.8282   47.9438 H14R    1  POPC         0.000000
     69 H14S      -37.0428  -46.4439   48.5412 H14S    1  POPC         0.000000
     70 C215      -35.9379  -47.6383   47.2445 C215    1  POPC         0.000000
     71 H15R      -34.9529  -47.2701   47.6213 H15R    1  POPC         0.000000
     72 H15S      -35.9478  -48.7283   47.1629 H15S    1  POPC         0.000000
     73 C216      -36.2551  -46.9498   45.8713 C216    1  POPC         0.000000
     74 H16R      -36.9181  -47.5961   45.2766 H16R    1  POPC         0.000000
     75 H16S      -36.7402  -45.9678   46.0090 H16S    1  POPC         0.000000
     76  H        -35.6091  -46.6755   45.1590    H    1  POPC         0.000000
     77  C33      -48.2671  -49.5726   61.7955  C33    1  POPC         0.000000
     78  H3X      -48.7180  -50.0561   60.8947  H3X    1  POPC         0.000000
     79  H3Y      -48.8743  -48.6237   61.8459  H3Y    1  POPC         0.000000
     80  C34      -46.7842  -49.2455   61.5364  C34    1  POPC         0.000000
     81  H4X      -46.2953  -48.8359   62.4663  H4X    1  POPC         0.000000
     82  H4Y      -46.2240  -50.1905   61.2030  H4Y    1  POPC         0.000000
     83  C35      -46.6562  -48.3451   60.2910  C35    1  POPC         0.000000
     84  H5X      -47.2991  -48.6606   59.4741  H5X    1  POPC         0.000000
     85  H5Y      -47.0424  -47.3150   60.5085  H5Y    1  POPC         0.000000
     86  C36      -45.2342  -48.2311   59.7121  C36    1  POPC         0.000000
     87  H6X      -44.6043  -47.6936   60.5029  H6X    1  POPC         0.000000
     88  H6Y      -44.7640  -49.2591   59.5716  H6Y    1  POPC         0.000000
     89  C37      -45.0522  -47.5537   58.4058  C37    1  POPC         0.000000
     90  H7X      -45.7170  -48.0722   57.6560  H7X    1  POPC         0.000000
     91  H7Y      -45.3873  -46.5188   58.3692  H7Y    1  POPC         0.000000
     92  C38      -43.7131  -47.5809   57.6749  C38    1  POPC         0.000000
     93  H8X      -43.0202  -47.1904   58.4358  H8X    1  POPC         0.000000
     94  H8Y      -43.5829  -48.6899   57.6095  H8Y    1  POPC         0.000000
     95  C39      -43.7161  -46.7565   56.2995  C39    1  POPC         0.000000
     96  H9Y      -43.8846  -45.6615   56.5969  H9Y    1  POPC         0.000000
     97 C310      -42.4839  -46.8105   55.4138 C310    1  POPC         0.000000
     98 H10Y      -42.4416  -47.7476   55.0080 H10Y    1  POPC         0.000000
     99 C311      -42.6788  -45.8549   54.2335 C311    1  POPC         0.000000
    100 H11X      -43.7087  -45.9942   53.7273 H11X    1  POPC         0.000000
    101 H11Y      -42.6031  -44.8398   54.5942 H11Y    1  POPC         0.000000
    102 C312      -41.6605  -46.1900   53.0098 C312    1  POPC         0.000000
    103 H12X      -40.6466  -46.1947   53.4320 H12X    1  POPC         0.000000
    104 H12Y      -41.8382  -47.2491   52.7180 H12Y    1  POPC         0.000000
    105 C313      -41.8794  -45.1733   51.8395 C313    1  POPC         0.000000
    106 H13X      -42.8443  -45.5476   51.4134 H13X    1  POPC         0.000000
    107 H13Y      -42.0777  -44.1902   52.3512 H13Y    1  POPC         0.000000
    108 C314      -40.7442  -45.1424   50.8277 C314    1  POPC         0.000000
    109 H14X      -39.7703  -44.6872   51.2629 H14X    1  POPC         0.000000
    110 H14Y      -40.6110  -46.2564   50.5499 H14Y    1  POPC         0.000000
    111 C315      -41.0990  -44.3466   49.6456 C315    1  POPC         0.000000
    112 H15X      -41.9569  -44.8447   49.1014 H15X    1  POPC         0.000000
    113 H15Y      -41.4222  -43.3825   49.9874 H15Y    1  POPC         0.000000
    114 C316      -39.9778  -44.3316   48.6028 C316    1  POPC         0.000000
    115 H16X      -40.0376  -45.2177   47.9909 H16X    1  POPC         0.000000
    116  H        -39.8030  -43.7769   47.7893    H    1  POPC         0.000000
    117 H16Z      -39.0069  -44.0974   49.1500 H16Z    1  POPC         0.000000
    118  H18      -42.6376  -50.5289   69.2694  H18    1  POPC         0.000000
    119  H19      -44.9389  -50.6668   72.2763  H19    1  POPC         0.000000
    120  H20      -46.1359  -48.4760   68.2361  H20    1  POPC         0.000000
    121  O23      -45.2601  -47.8523   69.4719  O23    1  POPC         0.000000
    122  C42      -45.8459  -49.5462   69.8667  C42    1  POPC         0.000000
    123  H25      -44.2611  -47.8011   69.4459  H25    1  POPC         0.000000
    124  O26      -46.8650  -48.7793   69.9962  O26    1  POPC         0.000000
    125  H27      -45.4599  -49.4858   70.4377  H27    1  POPC         0.000000
    126  C43      -46.1938  -50.4300   70.3141  C43    1  POPC         0.000000
    127  H29      -47.2188  -49.7309   68.9406  H29    1  POPC         0.000000
    128  O30      -46.0088  -50.2128   70.5950  O30    1  POPC         0.000000
    129  H1       -45.0978  -50.5945   71.0153   H1    1  POPC         0.000000
@<TRIPOS>BOND
    1     1   126  1
    2     1     5  1
    3     1     2  1
    4     1     3  1
    5     2     6  1
    6     2     7  1
    7     2     8  1
    8     4   124  1
    9     5   119  1
   10     6   118  1
   11     8     9  1
   12     8    10  1
   13     8    14  1
   14     9   120  1
   15     9   121  1
   16     9   122  1
   17    11    15  1
   18    11    14  1
   19    11    12  1
   20    11    13  1
   21    15    16  1
   22    16    18  1
   23    16    17  1
   24    16    19  1
   25    19    21  1
   26    19    20  1
   27    19    27  1
   28    21    22  1
   29    22    24  1
   30    22    23  1
   31    24    25  1
   32    24    26  1
   33    24    36  1
   34    27    28  1
   35    27    29  1
   36    27    30  1
   37    30    31  1
   38    31    33  1
   39    31    32  1
   40    33    77  1
   41    33    35  1
   42    33    34  1
   43    36    39  1
   44    36    38  1
   45    36    37  1
   46    39    41  1
   47    39    40  1
   48    39    42  1
   49    42    43  1
   50    42    44  1
   51    42    45  1
   52    45    47  1
   53    45    46  1
   54    45    48  1
   55    48    51  1
   56    48    49  1
   57    48    50  1
   58    51    53  1
   59    51    52  1
   60    51    54  1
   61    54    56  2
   62    54    55  1
   63    56    57  1
   64    56    58  1
   65    58    61  1
   66    58    59  1
   67    58    60  1
   68    61    64  1
   69    61    63  1
   70    61    62  1
   71    64    67  1
   72    64    66  1
   73    64    65  1
   74    67    70  1
   75    67    69  1
   76    67    68  1
   77    70    73  1
   78    70    72  1
   79    70    71  1
   80    73    75  1
   81    73    74  1
   82    73    76 -1
   83    77    79  1
   84    77    80  1
   85    77    78  1
   86    80    83  1
   87    80    82  1
   88    80    81  1
   89    83    84  1
   90    83    85  1
   91    83    86  1
   92    86    88  1
   93    86    89  1
   94    86    87  1
   95    89    92  1
   96    89    91  1
   97    89    90  1
   98    92    94  1
   99    92    93  1
  100    92    95  1
  101    95    97  2
  102    95    96  1
  103    97    98  1
  104    97    99  1
  105    99   102  1
  106    99   100  1
  107    99   101  1
  108   102   104  1
  109   102   103  1
  110   102   105  1
  111   105   108  1
  112   105   106  1
  113   105   107  1
  114   108   109  1
  115   108   111  1
  116   108   110  1
  117   111   112  1
  118   111   114  1
  119   111   113  1
  120   114   117  1
  121   114   115  1
  122   114   116 -1
  123   121   123  1
  124   122   124  1
  125   122   125  1
  126   122   126  1
  127   126   127  1
  128   126   128  1
  129   128   129  1

@<TRIPOS>SUBSTRUCTURE
1 ****        1 TEMP                        0 ****  **** 0 ROOT
