@<TRIPOS>MOLECULE
generated by VMD
  169  169    1    0    0
SMALL
NO_CHARGES
****
Energy = 0

@<TRIPOS>ATOM
      1  C        -45.4740  -51.1370   70.3790    C    1  POPC         0.000000
      2  C11      -44.3430  -50.1710   69.9560  C11    1  POPC         0.000000
      3  H12      -45.3140  -52.4650   69.8290  H12    1  POPC         0.000000
      4  H        -46.3900  -48.2470   70.6940    H    1  POPC         0.000000
      5  O14      -45.6190  -51.2570   71.8310  O14    1  POPC         0.000000
      6  O16      -43.5050  -50.9000   69.6050  O16    1  POPC         0.000000
      7  H17      -44.0010  -49.5770   70.8120  H17    1  POPC         0.000000
      8  C15      -44.6450  -49.2600   68.6600  C15    1  POPC         0.000000
      9  C51      -45.5540  -48.7010   69.0210  C51    1  POPC         0.000000
     10  H52      -43.7370  -48.6560   68.4290  H52    1  POPC         0.000000
     11  P1       -44.5770  -51.5670   67.6670   P1    1  POPC         0.000000
     12  O3       -45.4600  -52.2190   68.6330   O3    1  POPC         0.000000
     13  O4       -43.1380  -51.7910   67.8400   O4    1  POPC         0.000000
     14  O1       -44.7890  -50.0010   67.5060   O1    1  POPC         0.000000
     15  O2       -44.9280  -52.0000   66.1640   O2    1  POPC         0.000000
     16  C1       -44.3780  -51.4080   65.0270   C1    1  POPC         0.000000
     17  HA       -45.0040  -50.5410   64.7070   HA    1  POPC         0.000000
     18  HB       -43.3540  -51.0740   65.1620   HB    1  POPC         0.000000
     19  C2       -44.3610  -52.3620   63.7720   C2    1  POPC         0.000000
     20  HS       -43.8730  -53.2630   64.0800   HS    1  POPC         0.000000
     21  O21      -43.6670  -51.7620   62.5900  O21    1  POPC         0.000000
     22  C21      -43.4300  -52.5610   61.5530  C21    1  POPC         0.000000
     23  O22      -43.5440  -53.7930   61.5700  O22    1  POPC         0.000000
     24  C22      -43.2580  -51.6940   60.2910  C22    1  POPC         0.000000
     25  H2R      -44.1650  -51.5710   59.7420  H2R    1  POPC         0.000000
     26  H2S      -42.7990  -50.7420   60.4750  H2S    1  POPC         0.000000
     27  C3       -45.8080  -52.8010   63.3230   C3    1  POPC         0.000000
     28  HX       -45.7330  -53.3490   62.3760   HX    1  POPC         0.000000
     29  HY       -46.1610  -53.4620   64.1170   HY    1  POPC         0.000000
     30  O31      -46.6310  -51.6440   63.2460  O31    1  POPC         0.000000
     31  C31      -47.8700  -51.8630   62.9860  C31    1  POPC         0.000000
     32  O32      -48.3390  -52.9550   62.7320  O32    1  POPC         0.000000
     33  C32      -48.6450  -50.5120   62.9850  C32    1  POPC         0.000000
     34  H2X      -49.7550  -50.6480   63.0110  H2X    1  POPC         0.000000
     35  H2Y      -48.3860  -49.9910   63.9060  H2Y    1  POPC         0.000000
     36  C23      -42.2360  -52.4140   59.3270  C23    1  POPC         0.000000
     37  H3R      -41.2490  -52.3930   59.7530  H3R    1  POPC         0.000000
     38  H3S      -42.4530  -53.4600   59.0830  H3S    1  POPC         0.000000
     39  C24      -41.9330  -51.5040   58.0990  C24    1  POPC         0.000000
     40  H4R      -42.9130  -51.3490   57.6740  H4R    1  POPC         0.000000
     41  H4S      -41.6380  -50.4990   58.4370  H4S    1  POPC         0.000000
     42  C25      -40.9630  -51.9040   57.0080  C25    1  POPC         0.000000
     43  H5R      -39.9740  -52.0880   57.4740  H5R    1  POPC         0.000000
     44  H5S      -41.2740  -52.9230   56.5750  H5S    1  POPC         0.000000
     45  C26      -40.7900  -50.9230   55.8540  C26    1  POPC         0.000000
     46  H6R      -41.7510  -50.8750   55.3240  H6R    1  POPC         0.000000
     47  H6S      -40.5040  -49.8980   56.2840  H6S    1  POPC         0.000000
     48  C27      -39.7480  -51.2980   54.7870  C27    1  POPC         0.000000
     49  H7R      -38.7160  -51.1420   55.2190  H7R    1  POPC         0.000000
     50  H7S      -39.7960  -52.4340   54.5190  H7S    1  POPC         0.000000
     51  C28      -40.0110  -50.6290   53.4200  C28    1  POPC         0.000000
     52  H8R      -40.9940  -51.1700   53.0920  H8R    1  POPC         0.000000
     53  H8S      -40.1640  -49.4930   53.4500  H8S    1  POPC         0.000000
     54  C29      -38.8420  -50.9540   52.4400  C29    1  POPC         0.000000
     55  H91      -38.7610  -52.0040   52.0680  H91    1  POPC         0.000000
     56 C210      -37.9620  -50.0730   51.8110 C210    1  POPC         0.000000
     57 H101      -37.2700  -50.6020   51.1930 H101    1  POPC         0.000000
     58 C211      -37.8350  -48.5630   51.9210 C211    1  POPC         0.000000
     59 H11R      -38.6990  -48.0720   52.5190 H11R    1  POPC         0.000000
     60 H11S      -37.0210  -48.3900   52.5550 H11S    1  POPC         0.000000
     61 C212      -37.8370  -47.8520   50.6230 C212    1  POPC         0.000000
     62 H12R      -38.7960  -47.9980   50.0960 H12R    1  POPC         0.000000
     63 H12S      -37.6710  -46.7890   50.7530 H12S    1  POPC         0.000000
     64 C213      -36.7900  -48.2420   49.6020 C213    1  POPC         0.000000
     65 H13R      -35.7880  -48.0260   50.0080 H13R    1  POPC         0.000000
     66 H13S      -36.8580  -49.3300   49.2870 H13S    1  POPC         0.000000
     67 C214      -37.0300  -47.4840   48.3080 C214    1  POPC         0.000000
     68 H14R      -37.9680  -47.8260   47.9440 H14R    1  POPC         0.000000
     69 H14S      -37.0420  -46.4420   48.5420 H14S    1  POPC         0.000000
     70 C215      -35.9370  -47.6360   47.2450 C215    1  POPC         0.000000
     71 H15R      -34.9520  -47.2680   47.6220 H15R    1  POPC         0.000000
     72 H15S      -35.9470  -48.7260   47.1630 H15S    1  POPC         0.000000
     73 C216      -36.2540  -46.9470   45.8720 C216    1  POPC         0.000000
     74 H16R      -36.9170  -47.5930   45.2770 H16R    1  POPC         0.000000
     75 H16S      -36.7390  -45.9650   46.0100 H16S    1  POPC         0.000000
     76 C217      -35.0230  -46.7060   44.9840 C217    1  POPC         0.000000
     77 H17R      -34.1180  -46.3350   45.6090 H17R    1  POPC         0.000000
     78 H17S      -34.7730  -47.7200   44.4870 H17S    1  POPC         0.000000
     79 C218      -35.2300  -45.6500   43.9380 C218    1  POPC         0.000000
     80 C18R      -34.2280  -45.4580   43.4940    C    1  POPC         0.000000
     81 H18S      -35.9350  -45.9960   43.2050 H18S    1  POPC         0.000000
     82 H18T      -35.5450  -44.7600   44.4980 H18T    1  POPC         0.000000
     83  C33      -48.2660  -49.5750   61.7960  C33    1  POPC         0.000000
     84  H3X      -48.7170  -50.0580   60.8950  H3X    1  POPC         0.000000
     85  H3Y      -48.8730  -48.6260   61.8470  H3Y    1  POPC         0.000000
     86  C34      -46.7830  -49.2480   61.5370  C34    1  POPC         0.000000
     87  H4X      -46.2940  -48.8390   62.4670  H4X    1  POPC         0.000000
     88  H4Y      -46.2230  -50.1930   61.2030  H4Y    1  POPC         0.000000
     89  C35      -46.6550  -48.3470   60.2920  C35    1  POPC         0.000000
     90  H5X      -47.2980  -48.6620   59.4750  H5X    1  POPC         0.000000
     91  H5Y      -47.0410  -47.3170   60.5100  H5Y    1  POPC         0.000000
     92  C36      -45.2330  -48.2330   59.7130  C36    1  POPC         0.000000
     93  H6X      -44.6030  -47.6960   60.5040  H6X    1  POPC         0.000000
     94  H6Y      -44.7630  -49.2610   59.5720  H6Y    1  POPC         0.000000
     95  C37      -45.0510  -47.5550   58.4070  C37    1  POPC         0.000000
     96  H7X      -45.7160  -48.0730   57.6570  H7X    1  POPC         0.000000
     97  H7Y      -45.3860  -46.5200   58.3710  H7Y    1  POPC         0.000000
     98  C38      -43.7120  -47.5820   57.6760  C38    1  POPC         0.000000
     99  H8X      -43.0190  -47.1920   58.4370  H8X    1  POPC         0.000000
    100  H8Y      -43.5820  -48.6910   57.6100  H8Y    1  POPC         0.000000
    101  C39      -43.7150  -46.7570   56.3010  C39    1  POPC         0.000000
    102  H9X      -44.4960  -47.2100   55.5970  H9X    1  POPC         0.000000
    103  H9Y      -43.8830  -45.6620   56.5990  H9Y    1  POPC         0.000000
    104 C310      -42.4830  -46.8110   55.4150 C310    1  POPC         0.000000
    105 H10X      -41.6040  -46.4960   56.0100 H10X    1  POPC         0.000000
    106 H10Y      -42.4410  -47.7480   55.0090 H10Y    1  POPC         0.000000
    107 C311      -42.6780  -45.8550   54.2350 C311    1  POPC         0.000000
    108 H11X      -43.7080  -45.9940   53.7290 H11X    1  POPC         0.000000
    109 H11Y      -42.6020  -44.8400   54.5960 H11Y    1  POPC         0.000000
    110 C312      -41.6600  -46.1900   53.0110 C312    1  POPC         0.000000
    111 H12X      -40.6460  -46.1950   53.4330 H12X    1  POPC         0.000000
    112 H12Y      -41.8380  -47.2490   52.7190 H12Y    1  POPC         0.000000
    113 C313      -41.8790  -45.1730   51.8410 C313    1  POPC         0.000000
    114 H13X      -42.8440  -45.5470   51.4150 H13X    1  POPC         0.000000
    115 H13Y      -42.0770  -44.1900   52.3530 H13Y    1  POPC         0.000000
    116 C314      -40.7440  -45.1420   50.8290 C314    1  POPC         0.000000
    117 H14X      -39.7700  -44.6870   51.2640 H14X    1  POPC         0.000000
    118 H14Y      -40.6110  -46.2560   50.5510 H14Y    1  POPC         0.000000
    119 C315      -41.0990  -44.3460   49.6470 C315    1  POPC         0.000000
    120 H15X      -41.9570  -44.8440   49.1030 H15X    1  POPC         0.000000
    121 H15Y      -41.4220  -43.3820   49.9890 H15Y    1  POPC         0.000000
    122 C316      -39.9780  -44.3310   48.6040 C316    1  POPC         0.000000
    123 H16X      -40.0380  -45.2170   47.9920 H16X    1  POPC         0.000000
    124 C16Y      -40.2290  -43.5540   47.8110 C16Y    1  POPC         0.000000
    125 H16Z      -39.0070  -44.0970   49.1510 H16Z    1  POPC         0.000000
    126  H18      -42.6360  -50.5360   69.2690  H18    1  POPC         0.000000
    127  H19      -44.9370  -50.6750   72.2760  H19    1  POPC         0.000000
    128  H20      -46.1340  -48.4820   68.2370  H20    1  POPC         0.000000
    129  O23      -45.2580  -47.8590   69.4730  O23    1  POPC         0.000000
    130  C42      -45.8440  -49.5530   69.8670  C42    1  POPC         0.000000
    131  H25      -44.2590  -47.8080   69.4470  H25    1  POPC         0.000000
    132  O26      -46.8630  -48.7860   69.9970  O26    1  POPC         0.000000
    133  H27      -45.4580  -49.4930   70.4380  H27    1  POPC         0.000000
    134  C43      -46.1920  -50.4370   70.3140  C43    1  POPC         0.000000
    135  H29      -47.2170  -49.7370   68.9410  H29    1  POPC         0.000000
    136  O30      -46.0070  -50.2200   70.5950  O30    1  POPC         0.000000
    137  H1       -45.0960  -50.6020   71.0150   H1    1  POPC         0.000000
    138  H80      -41.1300  -43.7580   47.4280  H80    1  POPC         0.000000
    139  C45      -39.5360  -43.5890   47.0900  C45    1  POPC         0.000000
    140  H81      -40.2350  -42.6480   48.2340  H81    1  POPC         0.000000
    141  H82      -39.0860  -42.6980   47.0280  H82    1  POPC         0.000000
    142  C83      -39.9810  -43.8080   46.2220    C    1  POPC         0.000000
    143  H84      -38.8650  -44.2950   47.3180  H84    1  POPC         0.000000
    144  H        -38.0446  -51.5520   52.5205    H    1  POPC         0.000000
    145  H        -37.5998  -50.6668   51.0925    H    1  POPC         0.000000
    146  H        -39.5970  -44.6596   45.8650    H    1  POPC         0.000000
    147  C        -39.8178  -43.0629   45.5754    C    1  POPC         0.000000
    148  H        -40.9630  -43.9155   46.3776    H    1  POPC         0.000000
    149  H        -40.6967  -42.6791   45.2922    H    1  POPC         0.000000
    150  C        -39.3308  -43.4231   44.7797    C    1  POPC         0.000000
    151  H        -39.2664  -42.3586   46.0226    H    1  POPC         0.000000
    152  H        -33.9879  -44.4976   43.6354    H    1  POPC         0.000000
    153  C        -34.2613  -45.6607   42.5153    C    1  POPC         0.000000
    154  H        -33.5553  -46.0472   43.9416    H    1  POPC         0.000000
    155  H        -33.6002  -46.3822   42.3096    H    1  POPC         0.000000
    156  C        -34.0328  -44.8326   42.0034    C    1  POPC         0.000000
    157  H        -35.1835  -45.9652   42.2771    H    1  POPC         0.000000
    158  H        -34.8040  -44.5907   41.4145    H    1  POPC         0.000000
    159  C        -33.2205  -45.0075   41.4470    C    1  POPC         0.000000
    160  H        -33.8507  -44.0907   42.6488    H    1  POPC         0.000000
    161  H        -32.4975  -44.3720   41.7176    H    1  POPC         0.000000
    162  H        -33.4507  -44.8720   40.4833    H    1  POPC         0.000000
    163  H        -32.9201  -45.9496   41.5965    H    1  POPC         0.000000
    164  H        -38.4548  -42.9489   44.6920    H    1  POPC         0.000000
    165  C        -39.8851  -43.2694   43.9617    C    1  POPC         0.000000
    166  H        -39.1769  -44.4028   44.9082    H    1  POPC         0.000000
    167  H        -40.0929  -44.1514   43.5388    H    1  POPC         0.000000
    168  H        -39.3708  -42.6975   43.3226    H    1  POPC         0.000000
    169  H        -40.7330  -42.8091   44.2248    H    1  POPC         0.000000
@<TRIPOS>BOND
    1     1   134  1
    2     1     5  1
    3     1     2  1
    4     1     3  1
    5     2     6  1
    6     2     7  1
    7     2     8  1
    8     4   132  1
    9     5   127  1
   10     6   126  1
   11     8     9  1
   12     8    10  1
   13     8    14  1
   14     9   128  1
   15     9   129  1
   16     9   130  1
   17    11    15  1
   18    11    14  1
   19    11    12  1
   20    11    13  1
   21    15    16  1
   22    16    18  1
   23    16    17  1
   24    16    19  1
   25    19    21  1
   26    19    20  1
   27    19    27  1
   28    21    22  1
   29    22    24  1
   30    22    23  1
   31    24    25  1
   32    24    26  1
   33    24    36  1
   34    27    28  1
   35    27    29  1
   36    27    30  1
   37    30    31  1
   38    31    33  1
   39    31    32  1
   40    33    83  1
   41    33    35  1
   42    33    34  1
   43    36    39  1
   44    36    38  1
   45    36    37  1
   46    39    41  1
   47    39    40  1
   48    39    42  1
   49    42    43  1
   50    42    44  1
   51    42    45  1
   52    45    47  1
   53    45    46  1
   54    45    48  1
   55    48    51  1
   56    48    49  1
   57    48    50  1
   58    51    53  1
   59    51    52  1
   60    51    54  1
   61    54    56  1
   62    54    55  1
   63    54   144  1
   64    56    57  1
   65    56    58  1
   66    56   145  1
   67    58    61  1
   68    58    59  1
   69    58    60  1
   70    61    64  1
   71    61    63  1
   72    61    62  1
   73    64    67  1
   74    64    66  1
   75    64    65  1
   76    67    70  1
   77    67    69  1
   78    67    68  1
   79    70    73  1
   80    70    72  1
   81    70    71  1
   82    73    76  1
   83    73    75  1
   84    73    74  1
   85    76    78  1
   86    76    79  1
   87    76    77  1
   88    79    80  1
   89    79    81  1
   90    79    82  1
   91    80   152  1
   92    80   153  1
   93    80   154  1
   94    83    85  1
   95    83    86  1
   96    83    84  1
   97    86    89  1
   98    86    88  1
   99    86    87  1
  100    89    90  1
  101    89    91  1
  102    89    92  1
  103    92    94  1
  104    92    95  1
  105    92    93  1
  106    95    98  1
  107    95    97  1
  108    95    96  1
  109    98   100  1
  110    98    99  1
  111    98   101  1
  112   101   104  1
  113   101   102  1
  114   101   103  1
  115   104   106  1
  116   104   105  1
  117   104   107  1
  118   107   110  1
  119   107   108  1
  120   107   109  1
  121   110   112  1
  122   110   111  1
  123   110   113  1
  124   113   116  1
  125   113   114  1
  126   113   115  1
  127   116   117  1
  128   116   119  1
  129   116   118  1
  130   119   120  1
  131   119   122  1
  132   119   121  1
  133   122   124  1
  134   122   125  1
  135   122   123  1
  136   124   138  1
  137   124   139  1
  138   124   140  1
  139   129   131  1
  140   130   132  1
  141   130   133  1
  142   130   134  1
  143   134   135  1
  144   134   136  1
  145   136   137  1
  146   139   141  1
  147   139   142  1
  148   139   143  1
  149   142   146  1
  150   142   147  1
  151   142   148  1
  152   147   149  1
  153   147   150  1
  154   147   151  1
  155   150   164 -1
  156   150   165 -1
  157   150   166 -1
  158   153   155  1
  159   153   156  1
  160   153   157  1
  161   156   158 -1
  162   156   159 -1
  163   156   160 -1
  164   159   161 -1
  165   159   162 -1
  166   159   163 -1
  167   165   167 -1
  168   165   168 -1
  169   165   169 -1

@<TRIPOS>SUBSTRUCTURE
1 ****        1 TEMP                        0 ****  **** 0 ROOT
