@<TRIPOS>MOLECULE
generated by VMD
  119  118    1    0    0
SMALL
NO_CHARGES
****
Energy = 0

@<TRIPOS>ATOM
      1  N        -34.9431  -56.2213   59.5953    N    1  POPC         0.000000
      2  C11      -33.9563  -56.8513   60.6068  C11    1  POPC         0.000000
      3  H12      -34.4832  -54.9486   59.0833  H12    1  POPC         0.000000
      4  H13      -36.3197  -55.9883   60.2128  H13    1  POPC         0.000000
      5  H14      -35.2392  -57.0929   58.4562  H14    1  POPC         0.000000
      6  C16      -32.9211  -56.5031   60.2015  C16    1  POPC         0.000000
      7  H17      -34.0282  -57.9463   60.5866  H17    1  POPC         0.000000
      8  C15      -34.0162  -56.2616   62.1059  C15    1  POPC         0.000000
      9  H51      -35.0135  -56.6628   62.4362  H51    1  POPC         0.000000
     10  H52      -33.1173  -56.6154   62.6646  H52    1  POPC         0.000000
     11  P1       -34.7441  -54.1291   63.2196   P1    1  POPC         0.000000
     12  O3       -34.5719  -54.5655   64.6024   O3    1  POPC         0.000000
     13  O4       -36.1173  -54.1199   62.7021   O4    1  POPC         0.000000
     14  O1       -33.8491  -54.8927   62.1501   O1    1  POPC         0.000000
     15  O2       -34.1619  -52.6536   62.9886   O2    1  POPC         0.000000
     16  C1       -34.0249  -52.0495   61.7397   C1    1  POPC         0.000000
     17  HA       -33.0252  -52.2902   61.3063   HA    1  POPC         0.000000
     18  HB       -34.7954  -52.3327   61.0309   HB    1  POPC         0.000000
     19  C2       -34.0525  -50.4735   61.8030   C2    1  POPC         0.000000
     20  HS       -34.9471  -50.2048   62.3274   HS    1  POPC         0.000000
     21  O21      -34.0205  -49.8323   60.4501  O21    1  POPC         0.000000
     22  C21      -34.2374  -48.5211   60.3924  C21    1  POPC         0.000000
     23  O22      -34.6695  -47.8349   61.3257  O22    1  POPC         0.000000
     24  C22      -33.6244  -47.9763   59.0873  C22    1  POPC         0.000000
     25  H2R      -32.6311  -47.6112   59.2170  H2R    1  POPC         0.000000
     26  H2S      -33.6683  -48.6632   58.2642  H2S    1  POPC         0.000000
     27  C3       -32.8687  -49.8776   62.6597   C3    1  POPC         0.000000
     28  HX       -32.8709  -48.7866   62.5509   HX    1  POPC         0.000000
     29  HY       -33.0966  -50.1576   63.6887   HY    1  POPC         0.000000
     30  O31      -31.6544  -50.4875   62.2401  O31    1  POPC         0.000000
     31  C31      -30.6129  -50.1695   62.9208  C31    1  POPC         0.000000
     32  O32      -30.5979  -49.3467   63.8150  O32    1  POPC         0.000000
     33  C32      -29.3807  -50.9515   62.3783  C32    1  POPC         0.000000
     34  H2X      -28.5025  -50.9143   63.0690  H2X    1  POPC         0.000000
     35  H2Y      -29.6666  -52.0002   62.3152  H2Y    1  POPC         0.000000
     36  C23      -34.4986  -46.7585   58.5968  C23    1  POPC         0.000000
     37  H3R      -35.4620  -47.1036   58.2671  H3R    1  POPC         0.000000
     38  H3S      -34.6827  -45.9645   59.3310  H3S    1  POPC         0.000000
     39  C24      -33.9877  -46.2637   57.2097  C24    1  POPC         0.000000
     40  H4R      -32.9574  -46.0186   57.4134  H4R    1  POPC         0.000000
     41  H4S      -33.9186  -47.1086   56.5086  H4S    1  POPC         0.000000
     42  C25      -34.6440  -45.1230   56.4602  C25    1  POPC         0.000000
     43  H5R      -35.7063  -45.3851   56.2915  H5R    1  POPC         0.000000
     44  H5S      -34.6760  -44.1911   57.1343  H5S    1  POPC         0.000000
     45  C26      -34.0161  -44.7323   55.1260  C26    1  POPC         0.000000
     46  H6R      -33.0127  -44.3402   55.3457  H6R    1  POPC         0.000000
     47  H6S      -33.9571  -45.6652   54.4618  H6S    1  POPC         0.000000
     48  C27      -34.7285  -43.6246   54.3345  C27    1  POPC         0.000000
     49  H7R      -35.6730  -44.0527   53.8857  H7R    1  POPC         0.000000
     50  H7S      -35.0855  -42.7584   55.0288  H7S    1  POPC         0.000000
     51  C28      -33.7952  -42.8891   53.3463  C28    1  POPC         0.000000
     52  H8R      -33.0865  -42.3259   54.0881  H8R    1  POPC         0.000000
     53  H8S      -33.1920  -43.5625   52.6419  H8S    1  POPC         0.000000
     54  C29      -34.6217  -41.8793   52.4917  C29    1  POPC         0.000000
     55  H91      -35.0207  -40.9731   53.0111  H91    1  POPC         0.000000
     56 C210      -34.8012  -41.8499   51.1088 C210    1  POPC         0.000000
     57 H101      -35.4217  -41.0294   50.8222 H101    1  POPC         0.000000
     58 C211      -34.3022  -42.7990   50.0335 C211    1  POPC         0.000000
     59 H11R      -33.5456  -43.5847   50.4280 H11R    1  POPC         0.000000
     60 H11S      -35.1187  -43.4054   49.7856 H11S    1  POPC         0.000000
     61 C212      -33.5951  -42.1393   48.9133 C212    1  POPC         0.000000
     62 H12R      -32.6767  -41.6400   49.2691 H12R    1  POPC         0.000000
     63 H12S      -33.3268  -42.8494   48.1391 H12S    1  POPC         0.000000
     64 C213      -34.3317  -41.0597   48.1488 C213    1  POPC         0.000000
     65 H13R      -35.2191  -41.4991   47.6650 H13R    1  POPC         0.000000
     66 H13S      -34.6369  -40.1826   48.8010 H13S    1  POPC         0.000000
     67 C214      -33.4036  -40.4341   47.1246 C214    1  POPC         0.000000
     68 H14R      -32.6361  -39.9547   47.6824 H14R    1  POPC         0.000000
     69 H14S      -33.0243  -41.2203   46.5083 H14S    1  POPC         0.000000
     70 C215      -34.0653  -39.4565   46.1489 C215    1  POPC         0.000000
     71 H15R      -34.8648  -39.9579   45.5511 H15R    1  POPC         0.000000
     72 H15S      -34.4936  -38.7674   46.8812 H15S    1  POPC         0.000000
     73 C216      -33.0761  -38.7260   45.1737 C216    1  POPC         0.000000
     74 H16R      -32.6004  -37.8794   45.6937 H16R    1  POPC         0.000000
     75 H16S      -32.2907  -39.4075   44.8044 H16S    1  POPC         0.000000
     76  H        -33.2871  -38.2873   44.3002    H    1  POPC         0.000000
     77  H        -29.3124  -42.1661   45.7259    H    1  POPC         0.000000
     78  C33      -28.9349  -50.5026   60.9522  C33    1  POPC         0.000000
     79  H3X      -28.4760  -49.4940   61.0982  H3X    1  POPC         0.000000
     80  H3Y      -28.0315  -51.0953   60.6267  H3Y    1  POPC         0.000000
     81  C34      -29.9762  -50.4515   59.8176  C34    1  POPC         0.000000
     82  H4X      -30.5081  -51.4410   59.7176  H4X    1  POPC         0.000000
     83  H4Y      -30.7505  -49.6289   60.0280  H4Y    1  POPC         0.000000
     84  C35      -29.3153  -49.9408   58.5204  C35    1  POPC         0.000000
     85  H5X      -28.6485  -49.1014   58.6903  H5X    1  POPC         0.000000
     86  H5Y      -28.6191  -50.7153   58.1040  H5Y    1  POPC         0.000000
     87  C36      -30.2973  -49.5078   57.4158  C36    1  POPC         0.000000
     88  H6X      -30.8502  -50.4533   57.0859  H6X    1  POPC         0.000000
     89  H6Y      -31.0876  -48.7982   57.8253  H6Y    1  POPC         0.000000
     90  C37      -29.7571  -48.8190   56.2188  C37    1  POPC         0.000000
     91  H7X      -29.1783  -47.9176   56.5747  H7X    1  POPC         0.000000
     92  H7Y      -29.0228  -49.3845   55.6504  H7Y    1  POPC         0.000000
     93  C38      -30.6800  -48.1821   55.1852  C38    1  POPC         0.000000
     94  H8X      -31.3418  -49.0175   54.9093  H8X    1  POPC         0.000000
     95  H8Y      -31.2412  -47.4927   55.8645  H8Y    1  POPC         0.000000
     96  C39      -29.8999  -47.5235   53.9471  C39    1  POPC         0.000000
     97  H9X      -29.2080  -46.6982   54.3410  H9X    1  POPC         0.000000
     98 C310      -30.6946  -46.7447   52.9145 C310    1  POPC         0.000000
     99 H10X      -31.4920  -47.3971   52.5153 H10X    1  POPC         0.000000
    100 C311      -29.7555  -46.3227   51.7795 C311    1  POPC         0.000000
    101 H11X      -28.7822  -45.8444   52.1785 H11X    1  POPC         0.000000
    102 H11Y      -29.5001  -47.1957   51.2001 H11Y    1  POPC         0.000000
    103 C312      -30.3820  -45.1100   50.8971 C312    1  POPC         0.000000
    104 H12X      -31.3782  -45.4364   50.5681 H12X    1  POPC         0.000000
    105 H12Y      -30.5904  -44.2692   51.5964 H12Y    1  POPC         0.000000
    106 C313      -29.3989  -44.7301   49.7371 C313    1  POPC         0.000000
    107 H13X      -28.6055  -44.1838   50.3052 H13X    1  POPC         0.000000
    108 H13Y      -28.9725  -45.7152   49.3936 H13Y    1  POPC         0.000000
    109 C314      -30.0376  -43.8993   48.6355 C314    1  POPC         0.000000
    110 H14X      -30.8081  -44.5007   48.0104 H14X    1  POPC         0.000000
    111 H14Y      -30.5371  -43.0343   49.2159 H14Y    1  POPC         0.000000
    112 C315      -29.0295  -43.3876   47.6965 C315    1  POPC         0.000000
    113 H15X      -28.3411  -42.6710   48.2387 H15X    1  POPC         0.000000
    114 H15Y      -28.4519  -44.2237   47.3532 H15Y    1  POPC         0.000000
    115 C316      -29.6522  -42.5209   46.5969 C316    1  POPC         0.000000
    116 H16X      -29.7877  -41.5140   46.9602 H16X    1  POPC         0.000000
    117 H16Z      -30.5485  -43.0883   46.1828 H16Z    1  POPC         0.000000
    118  O18      -32.0842  -56.7729   60.6762  O18    1  POPC         0.000000
    119  O19      -32.8709  -55.9350   59.3806  O19    1  POPC         0.000000
@<TRIPOS>BOND
    1     1     5  1
    2     1     4  1
    3     1     2  1
    4     1     3  1
    5     2     7  1
    6     2     6  1
    7     2     8  1
    8     6   118  1
    9     6   119  1
   10     8     9  1
   11     8    10  1
   12     8    14  1
   13    11    15  1
   14    11    14  1
   15    11    12  1
   16    11    13  1
   17    15    16  1
   18    16    18  1
   19    16    17  1
   20    16    19  1
   21    19    21  1
   22    19    20  1
   23    19    27  1
   24    21    22  1
   25    22    24  1
   26    22    23  1
   27    24    26  1
   28    24    25  1
   29    24    36  1
   30    27    29  1
   31    27    30  1
   32    27    28  1
   33    30    31  1
   34    31    33  1
   35    31    32  1
   36    33    78  1
   37    33    35  1
   38    33    34  1
   39    36    39  1
   40    36    38  1
   41    36    37  1
   42    39    41  1
   43    39    40  1
   44    39    42  1
   45    42    43  1
   46    42    44  1
   47    42    45  1
   48    45    47  1
   49    45    46  1
   50    45    48  1
   51    48    51  1
   52    48    49  1
   53    48    50  1
   54    51    53  1
   55    51    52  1
   56    51    54  1
   57    54    56  2
   58    54    55  1
   59    56    57  1
   60    56    58  1
   61    58    61  1
   62    58    59  1
   63    58    60  1
   64    61    64  1
   65    61    62  1
   66    61    63  1
   67    64    67  1
   68    64    66  1
   69    64    65  1
   70    67    70  1
   71    67    69  1
   72    67    68  1
   73    70    73  1
   74    70    72  1
   75    70    71  1
   76    73    75  1
   77    73    74  1
   78    73    76 -1
   79    77   115 -1
   80    78    79  1
   81    78    80  1
   82    78    81  1
   83    81    83  1
   84    81    84  1
   85    81    82  1
   86    84    87  1
   87    84    86  1
   88    84    85  1
   89    87    89  1
   90    87    90  1
   91    87    88  1
   92    90    93  1
   93    90    92  1
   94    90    91  1
   95    93    95  1
   96    93    94  1
   97    93    96  1
   98    96    98  2
   99    96    97  1
  100    98    99  1
  101    98   100  1
  102   100   103  1
  103   100   101  1
  104   100   102  1
  105   103   105  1
  106   103   104  1
  107   103   106  1
  108   106   109  1
  109   106   107  1
  110   106   108  1
  111   109   110  1
  112   109   112  1
  113   109   111  1
  114   112   115  1
  115   112   113  1
  116   112   114  1
  117   115   117  1
  118   115   116  1

@<TRIPOS>SUBSTRUCTURE
1 ****        1 TEMP                        0 ****  **** 0 ROOT
