@<TRIPOS>MOLECULE
generated by VMD
   99   98    1    0    0
SMALL
NO_CHARGES
****
Energy = 0

@<TRIPOS>ATOM
      1  N        -34.9360  -56.2210   59.5970    N    1  POPC         0.000000
      2  C11      -33.9490  -56.8500   60.6090  C11    1  POPC         0.000000
      3  H12      -34.4770  -54.9480   59.0850  H12    1  POPC         0.000000
      4  H13      -36.3130  -55.9890   60.2140  H13    1  POPC         0.000000
      5  H14      -35.2310  -57.0930   58.4580  H14    1  POPC         0.000000
      6  C16      -32.9140  -56.5010   60.2040  C16    1  POPC         0.000000
      7  H17      -34.0200  -57.9450   60.5890  H17    1  POPC         0.000000
      8  C15      -34.0100  -56.2600   62.1080  C15    1  POPC         0.000000
      9  H51      -35.0070  -56.6620   62.4380  H51    1  POPC         0.000000
     10  H52      -33.1110  -56.6130   62.6670  H52    1  POPC         0.000000
     11  P1       -34.7400  -54.1280   63.2210   P1    1  POPC         0.000000
     12  O3       -34.5680  -54.5640   64.6040   O3    1  POPC         0.000000
     13  O4       -36.1130  -54.1200   62.7030   O4    1  POPC         0.000000
     14  O1       -33.8440  -54.8910   62.1520   O1    1  POPC         0.000000
     15  O2       -34.1590  -52.6520   62.9900   O2    1  POPC         0.000000
     16  C1       -34.0220  -52.0480   61.7410   C1    1  POPC         0.000000
     17  HA       -33.0220  -52.2880   61.3080   HA    1  POPC         0.000000
     18  HB       -34.7920  -52.3320   61.0320   HB    1  POPC         0.000000
     19  C2       -34.0510  -50.4720   61.8040   C2    1  POPC         0.000000
     20  HS       -34.9460  -50.2040   62.3280   HS    1  POPC         0.000000
     21  O21      -34.0190  -49.8310   60.4510  O21    1  POPC         0.000000
     22  C21      -34.2370  -48.5200   60.3930  C21    1  POPC         0.000000
     23  O22      -34.6700  -47.8340   61.3260  O22    1  POPC         0.000000
     24  C22      -33.6240  -47.9750   59.0880  C22    1  POPC         0.000000
     25  H2R      -32.6310  -47.6090   59.2180  H2R    1  POPC         0.000000
     26  H2S      -33.6670  -48.6620   58.2650  H2S    1  POPC         0.000000
     27  C3       -32.8680  -49.8750   62.6610   C3    1  POPC         0.000000
     28  HX       -32.8710  -48.7840   62.5520   HX    1  POPC         0.000000
     29  HY       -33.0960  -50.1550   63.6900   HY    1  POPC         0.000000
     30  O31      -31.6530  -50.4840   62.2420  O31    1  POPC         0.000000
     31  C31      -30.6120  -50.1650   62.9230  C31    1  POPC         0.000000
     32  O32      -30.5980  -49.3420   63.8170  O32    1  POPC         0.000000
     33  C32      -29.3790  -50.9460   62.3810  C32    1  POPC         0.000000
     34  H2X      -28.5010  -50.9080   63.0720  H2X    1  POPC         0.000000
     35  H2Y      -29.6640  -51.9950   62.3180  H2Y    1  POPC         0.000000
     36  C23      -34.4990  -46.7580   58.5970  C23    1  POPC         0.000000
     37  H3R      -35.4620  -47.1040   58.2670  H3R    1  POPC         0.000000
     38  H3S      -34.6840  -45.9640   59.3310  H3S    1  POPC         0.000000
     39  C24      -33.9880  -46.2630   57.2100  C24    1  POPC         0.000000
     40  H4R      -32.9580  -46.0170   57.4140  H4R    1  POPC         0.000000
     41  H4S      -33.9180  -47.1080   56.5090  H4S    1  POPC         0.000000
     42  C25      -34.6450  -45.1230   56.4600  C25    1  POPC         0.000000
     43  H5R      -35.7070  -45.3860   56.2910  H5R    1  POPC         0.000000
     44  H5S      -34.6780  -44.1910   57.1340  H5S    1  POPC         0.000000
     45  C26      -34.0170  -44.7320   55.1260  C26    1  POPC         0.000000
     46  H6R      -33.0140  -44.3390   55.3460  H6R    1  POPC         0.000000
     47  H6S      -33.9570  -45.6650   54.4620  H6S    1  POPC         0.000000
     48  C27      -34.7300  -43.6250   54.3340  C27    1  POPC         0.000000
     49  H7R      -35.6740  -44.0540   53.8850  H7R    1  POPC         0.000000
     50  H7S      -35.0880  -42.7590   55.0280  H7S    1  POPC         0.000000
     51  C28      -33.7970  -42.8890   53.3460  C28    1  POPC         0.000000
     52  H8R      -33.0890  -42.3250   54.0880  H8R    1  POPC         0.000000
     53  H8S      -33.1930  -43.5620   52.6420  H8S    1  POPC         0.000000
     54  C29      -34.6240  -41.8800   52.4910  C29    1  POPC         0.000000
     55  H91      -35.0240  -40.9740   53.0100  H91    1  POPC         0.000000
     56 C210      -34.8030  -41.8510   51.1080 C210    1  POPC         0.000000
     57 H101      -35.4240  -41.0310   50.8210 H101    1  POPC         0.000000
     58 C211      -34.3030  -42.8000   50.0330 C211    1  POPC         0.000000
     59 H11R      -33.5460  -43.5850   50.4280 H11R    1  POPC         0.000000
     60 H11S      -35.1190  -43.4070   49.7850 H11S    1  POPC         0.000000
     61 C212      -33.5960  -42.1400   48.9130 C212    1  POPC         0.000000
     62 H12R      -32.6780  -41.6400   49.2690 H12R    1  POPC         0.000000
     63 H12S      -33.3270  -42.8500   48.1390 H12S    1  POPC         0.000000
     64  H        -33.9905  -41.4249   48.3360    H    1  POPC         0.000000
     65  H        -30.0072  -44.6566   50.0877    H    1  POPC         0.000000
     66  C33      -28.9330  -50.4970   60.9550  C33    1  POPC         0.000000
     67  H3X      -28.4750  -49.4880   61.1010  H3X    1  POPC         0.000000
     68  H3Y      -28.0290  -51.0890   60.6300  H3Y    1  POPC         0.000000
     69  C34      -29.9740  -50.4470   59.8200  C34    1  POPC         0.000000
     70  H4X      -30.5050  -51.4370   59.7200  H4X    1  POPC         0.000000
     71  H4Y      -30.7490  -49.6250   60.0300  H4Y    1  POPC         0.000000
     72  C35      -29.3130  -49.9360   58.5230  C35    1  POPC         0.000000
     73  H5X      -28.6470  -49.0960   58.6930  H5X    1  POPC         0.000000
     74  H5Y      -28.6160  -50.7100   58.1070  H5Y    1  POPC         0.000000
     75  C36      -30.2950  -49.5040   57.4180  C36    1  POPC         0.000000
     76  H6X      -30.8470  -50.4500   57.0880  H6X    1  POPC         0.000000
     77  H6Y      -31.0860  -48.7950   57.8270  H6Y    1  POPC         0.000000
     78  C37      -29.7550  -48.8150   56.2210  C37    1  POPC         0.000000
     79  H7X      -29.1770  -47.9130   56.5770  H7X    1  POPC         0.000000
     80  H7Y      -29.0200  -49.3800   55.6530  H7Y    1  POPC         0.000000
     81  C38      -30.6780  -48.1790   55.1870  C38    1  POPC         0.000000
     82  H8X      -31.3390  -49.0150   54.9110  H8X    1  POPC         0.000000
     83  H8Y      -31.2400  -47.4900   55.8660  H8Y    1  POPC         0.000000
     84  C39      -29.8980  -47.5200   53.9490  C39    1  POPC         0.000000
     85  H9X      -29.2070  -46.6940   54.3430  H9X    1  POPC         0.000000
     86  H9Y      -29.3820  -48.3910   53.4100  H9Y    1  POPC         0.000000
     87 C310      -30.6930  -46.7420   52.9160 C310    1  POPC         0.000000
     88 H10X      -31.4900  -47.3950   52.5170 H10X    1  POPC         0.000000
     89 H10Y      -31.0000  -45.8740   53.3600 H10Y    1  POPC         0.000000
     90 C311      -29.7540  -46.3200   51.7810 C311    1  POPC         0.000000
     91 H11X      -28.7810  -45.8410   52.1800 H11X    1  POPC         0.000000
     92 H11Y      -29.4980  -47.1930   51.2020 H11Y    1  POPC         0.000000
     93 C312      -30.3810  -45.1080   50.8980 C312    1  POPC         0.000000
     94 H12X      -31.3770  -45.4350   50.5690 H12X    1  POPC         0.000000
     95 H12Y      -30.5900  -44.2670   51.5970 H12Y    1  POPC         0.000000
     96  O18      -32.0770  -56.7700   60.6790  O18    1  POPC         0.000000
     97  O19      -32.8640  -55.9330   59.3830  O19    1  POPC         0.000000
     98  H        -35.5817  -41.5943   52.5258    H    1  POPC         0.000000
     99  H        -35.1450  -40.9195   50.9842    H    1  POPC         0.000000
@<TRIPOS>BOND
    1     1     5  1
    2     1     4  1
    3     1     2  1
    4     1     3  1
    5     2     7  1
    6     2     6  1
    7     2     8  1
    8     6    96  1
    9     6    97  1
   10     8     9  1
   11     8    10  1
   12     8    14  1
   13    11    15  1
   14    11    14  1
   15    11    12  1
   16    11    13  1
   17    15    16  1
   18    16    18  1
   19    16    17  1
   20    16    19  1
   21    19    21  1
   22    19    20  1
   23    19    27  1
   24    21    22  1
   25    22    24  1
   26    22    23  1
   27    24    26  1
   28    24    25  1
   29    24    36  1
   30    27    29  1
   31    27    30  1
   32    27    28  1
   33    30    31  1
   34    31    33  1
   35    31    32  1
   36    33    66  1
   37    33    35  1
   38    33    34  1
   39    36    39  1
   40    36    38  1
   41    36    37  1
   42    39    41  1
   43    39    40  1
   44    39    42  1
   45    42    43  1
   46    42    44  1
   47    42    45  1
   48    45    47  1
   49    45    46  1
   50    45    48  1
   51    48    51  1
   52    48    49  1
   53    48    50  1
   54    51    53  1
   55    51    52  1
   56    51    54  1
   57    54    56  1
   58    54    55  1
   59    54    98  1
   60    56    57  1
   61    56    58  1
   62    56    99  1
   63    58    61  1
   64    58    59  1
   65    58    60  1
   66    61    62  1
   67    61    63  1
   68    61    64 -1
   69    65    93 -1
   70    66    67  1
   71    66    68  1
   72    66    69  1
   73    69    71  1
   74    69    72  1
   75    69    70  1
   76    72    75  1
   77    72    74  1
   78    72    73  1
   79    75    77  1
   80    75    78  1
   81    75    76  1
   82    78    81  1
   83    78    80  1
   84    78    79  1
   85    81    83  1
   86    81    82  1
   87    81    84  1
   88    84    87  1
   89    84    85  1
   90    84    86  1
   91    87    89  1
   92    87    88  1
   93    87    90  1
   94    90    93  1
   95    90    91  1
   96    90    92  1
   97    93    95  1
   98    93    94  1

@<TRIPOS>SUBSTRUCTURE
1 ****        1 TEMP                        0 ****  **** 0 ROOT
