@<TRIPOS>MOLECULE
generated by VMD
  127  126    1    0    0
SMALL
NO_CHARGES
****
Energy = 0

@<TRIPOS>ATOM
      1  N        -31.2771  -47.0242   65.6152    N    1  POPC         0.000000
      2  C11      -30.5491  -46.2411   66.7331  C11    1  POPC         0.000000
      3  H12      -31.4012  -46.2654   64.3901  H12    1  POPC         0.000000
      4  H13      -32.6851  -47.4382   66.0343  H13    1  POPC         0.000000
      5  H14      -30.6411  -48.3053   65.2983  H14    1  POPC         0.000000
      6  C16      -29.7841  -45.5972   66.1360  C16    1  POPC         0.000000
      7  H17      -30.0260  -46.9290   67.4101  H17    1  POPC         0.000000
      8  C15      -31.4430  -45.1610   67.5290  C15    1  POPC         0.000000
      9  H51      -32.1240  -45.8510   68.1001  H51    1  POPC         0.000000
     10  H52      -30.7640  -44.5090   68.1289  H52    1  POPC         0.000000
     11  P1       -33.5190  -43.8121   67.0990   P1    1  POPC         0.000000
     12  O3       -33.6570  -43.2379   68.4349   O3    1  POPC         0.000000
     13  O4       -34.4001  -44.9421   66.7781   O4    1  POPC         0.000000
     14  O1       -32.0441  -44.2431   66.6939   O1    1  POPC         0.000000
     15  O2       -33.7561  -42.7132   65.9569   O2    1  POPC         0.000000
     16  C1       -33.5152  -42.9254   64.5999   C1    1  POPC         0.000000
     17  HA       -32.4612  -42.6584   64.3528   HA    1  POPC         0.000000
     18  HB       -33.7082  -43.9424   64.2770   HB    1  POPC         0.000000
     19  C2       -34.3822  -42.0005   63.6608   C2    1  POPC         0.000000
     20  HS       -35.4032  -42.1374   63.9549   HS    1  POPC         0.000000
     21  O21      -34.2043  -42.3116   62.2068  O21    1  POPC         0.000000
     22  C21      -35.0354  -41.7217   61.3518  C21    1  POPC         0.000000
     23  O22      -36.0633  -41.1137   61.6718  O22    1  POPC         0.000000
     24  C22      -34.3754  -41.6969   59.9598  C22    1  POPC         0.000000
     25  H2R      -33.8445  -40.7919   59.7677  H2R    1  POPC         0.000000
     26  H2S      -33.7555  -42.5479   59.7548  H2S    1  POPC         0.000000
     27  C3       -34.0852  -40.4654   63.8766   C3    1  POPC         0.000000
     28  HX       -34.6173  -39.8935   63.1076   HX    1  POPC         0.000000
     29  HY       -34.4862  -40.2373   64.8646   HY    1  POPC         0.000000
     30  O31      -32.6772  -40.2694   63.8585  O31    1  POPC         0.000000
     31  C31      -32.2832  -39.0754   64.1214  C31    1  POPC         0.000000
     32  O32      -33.0222  -38.1274   64.2963  O32    1  POPC         0.000000
     33  C32      -30.7262  -39.0314   64.1143  C32    1  POPC         0.000000
     34  H2X      -30.3152  -38.0974   64.5721  H2X    1  POPC         0.000000
     35  H2Y      -30.3772  -39.8493   64.7423  H2Y    1  POPC         0.000000
     36  C23      -35.5105  -41.8000   58.8689  C23    1  POPC         0.000000
     37  H3R      -35.9565  -42.7780   58.8900  H3R    1  POPC         0.000000
     38  H3S      -36.3315  -41.0770   58.9508  H3S    1  POPC         0.000000
     39  C24      -34.8736  -41.9112   57.4498  C24    1  POPC         0.000000
     40  H4R      -34.2786  -41.0142   57.3897  H4R    1  POPC         0.000000
     41  H4S      -34.1276  -42.7192   57.4329  H4S    1  POPC         0.000000
     42  C25      -35.7067  -42.0553   56.1939  C25    1  POPC         0.000000
     43  H5R      -36.3307  -42.9643   56.2940  H5R    1  POPC         0.000000
     44  H5S      -36.4607  -41.1883   56.1328  H5S    1  POPC         0.000000
     45  C26      -34.9447  -42.1255   54.8739  C26    1  POPC         0.000000
     46  H6R      -34.4527  -41.1525   54.7347  H6R    1  POPC         0.000000
     47  H6S      -34.1727  -42.9714   54.9409  H6S    1  POPC         0.000000
     48  C27      -35.7888  -42.3466   53.6089  C27    1  POPC         0.000000
     49  H7R      -36.1348  -43.4216   53.5891  H7R    1  POPC         0.000000
     50  H7S      -36.7668  -41.7116   53.6259  H7S    1  POPC         0.000000
     51  C28      -35.0949  -41.8447   52.3218  C28    1  POPC         0.000000
     52  H8R      -35.1079  -40.6887   52.4987  H8R    1  POPC         0.000000
     53  H8S      -34.0239  -42.2188   52.1608  H8S    1  POPC         0.000000
     54  C29      -35.9529  -42.2269   51.0769  C29    1  POPC         0.000000
     55  H91      -36.9220  -41.6859   50.9349  H91    1  POPC         0.000000
     56 C210      -35.6090  -43.0400   49.9970 C210    1  POPC         0.000000
     57 H101      -36.4141  -43.1071   49.2981 H101    1  POPC         0.000000
     58 C211      -34.3410  -43.8310   49.7280 C211    1  POPC         0.000000
     59 H11R      -33.4880  -43.6030   50.4800 H11R    1  POPC         0.000000
     60 H11S      -34.5670  -44.8240   49.9680 H11S    1  POPC         0.000000
     61 C212      -33.7350  -43.5850   48.4000 C212    1  POPC         0.000000
     62 H12R      -33.4130  -42.5330   48.3050 H12R    1  POPC         0.000000
     63 H12S      -32.8780  -44.2270   48.2290 H12S    1  POPC         0.000000
     64 C213      -34.5920  -43.8230   47.1760 C213    1  POPC         0.000000
     65 H13R      -34.8750  -44.8880   47.1320 H13R    1  POPC         0.000000
     66 H13S      -35.5210  -43.1710   47.1490 H13S    1  POPC         0.000000
     67 C214      -33.8320  -43.4080   45.9300 C214    1  POPC         0.000000
     68 H14R      -33.6900  -42.3580   46.0140 H14R    1  POPC         0.000000
     69 H14S      -32.9070  -43.9420   45.9230 H14S    1  POPC         0.000000
     70 C215      -34.5020  -43.7670   44.6010 C215    1  POPC         0.000000
     71 H15R      -34.6440  -44.8710   44.5030 H15R    1  POPC         0.000000
     72 H15S      -35.4570  -43.2600   44.7620 H15S    1  POPC         0.000000
     73 C216      -33.7670  -43.2270   43.3240 C216    1  POPC         0.000000
     74 H16R      -34.0280  -42.1690   43.1650 H16R    1  POPC         0.000000
     75 H16S      -32.6710  -43.3160   43.4160 H16S    1  POPC         0.000000
     76 C217      -34.1570  -43.9380   42.0180 C217    1  POPC         0.000000
     77 H17R      -34.2520  -45.0850   42.1750 H17R    1  POPC         0.000000
     78 H17S      -35.1740  -43.4960   41.6940 H17S    1  POPC         0.000000
     79 C218      -33.1460  -43.7810   40.9210 C218    1  POPC         0.000000
     80 H18R      -33.4610  -44.4780   40.1110 H18R    1  POPC         0.000000
     81 H18S      -33.1240  -42.7590   40.5880 H18S    1  POPC         0.000000
     82 H18T      -32.2050  -44.1460   41.3520 H18T    1  POPC         0.000000
     83  C33      -30.1023  -39.2306   62.6983  C33    1  POPC         0.000000
     84  H3X      -30.3263  -38.2826   62.1492  H3X    1  POPC         0.000000
     85  H3Y      -28.9773  -39.1716   62.7622  H3Y    1  POPC         0.000000
     86  C34      -30.5253  -40.4457   61.8514  C34    1  POPC         0.000000
     87  H4X      -30.3853  -41.4046   62.4285  H4X    1  POPC         0.000000
     88  H4Y      -31.6294  -40.3507   61.5465  H4Y    1  POPC         0.000000
     89  C35      -29.8144  -40.4068   60.4834  C35    1  POPC         0.000000
     90  H5X      -29.7974  -39.4129   60.0463  H5X    1  POPC         0.000000
     91  H5Y      -28.7214  -40.6308   60.6033  H5Y    1  POPC         0.000000
     92  C36      -30.4015  -41.3489   59.4165  C36    1  POPC         0.000000
     93  H6X      -30.2175  -42.4149   59.7886  H6X    1  POPC         0.000000
     94  H6Y      -31.5305  -41.2260   59.3376  H6Y    1  POPC         0.000000
     95  C37      -29.9126  -41.2311   58.0215  C37    1  POPC         0.000000
     96  H7X      -30.0626  -40.1611   57.6954  H7X    1  POPC         0.000000
     97  H7Y      -28.8446  -41.3891   57.8894  H7Y    1  POPC         0.000000
     98  C38      -30.5856  -41.9822   56.8776  C38    1  POPC         0.000000
     99  H8X      -30.5626  -43.0242   57.2297  H8X    1  POPC         0.000000
    100  H8Y      -31.6246  -41.5852   57.0066  H8Y    1  POPC         0.000000
    101  C39      -29.8807  -41.7514   55.4545  C39    1  POPC         0.000000
    102  H9X      -29.9177  -40.6344   55.1984  H9X    1  POPC         0.000000
    103  H9Y      -28.8337  -42.2094   55.5515  H9Y    1  POPC         0.000000
    104 C310      -30.5298  -42.3385   54.2146 C310    1  POPC         0.000000
    105 H10X      -30.6628  -43.4255   54.3648 H10X    1  POPC         0.000000
    106 H10Y      -31.3798  -41.8005   54.0326 H10Y    1  POPC         0.000000
    107 C311      -29.6148  -42.0917   53.0106 C311    1  POPC         0.000000
    108 H11X      -29.2548  -40.9947   52.9584 H11X    1  POPC         0.000000
    109 H11Y      -28.7538  -42.7356   53.0936 H11Y    1  POPC         0.000000
    110 C312      -30.4139  -42.2448   51.6036 C312    1  POPC         0.000000
    111 H12X      -30.8959  -43.2318   51.6158 H12X    1  POPC         0.000000
    112 H12Y      -31.2649  -41.5278   51.6306 H12Y    1  POPC         0.000000
    113 C313      -29.4340  -42.0080   50.4035 C313    1  POPC         0.000000
    114 H13X      -29.3090  -40.8969   50.4514 H13X    1  POPC         0.000000
    115 H13Y      -28.4670  -42.4859   50.7295 H13Y    1  POPC         0.000000
    116 C314      -29.9641  -42.5021   49.0676 C314    1  POPC         0.000000
    117 H14X      -30.0221  -43.6591   49.0088 H14X    1  POPC         0.000000
    118 H14Y      -31.0111  -42.0161   49.0056 H14Y    1  POPC         0.000000
    119 C315      -29.1131  -42.0582   47.9545 C315    1  POPC         0.000000
    120 H15X      -29.1501  -40.9292   47.8814 H15X    1  POPC         0.000000
    121 H15Y      -28.1071  -42.3552   48.1775 H15Y    1  POPC         0.000000
    122 C316      -29.6512  -42.5204   46.5966 C316    1  POPC         0.000000
    123 H16X      -30.4122  -41.8364   46.2536 H16X    1  POPC         0.000000
    124 H16Y      -28.8612  -42.3155   45.8035 H16Y    1  POPC         0.000000
    125 H16Z      -29.9002  -43.6284   46.6887 H16Z    1  POPC         0.000000
    126  O18      -29.1671  -44.9791   66.6209  O18    1  POPC         0.000000
    127  O19      -29.7461  -45.6633   65.1390  O19    1  POPC         0.000000
@<TRIPOS>BOND
    1     1     5  1
    2     1     4  1
    3     1     2  1
    4     1     3  1
    5     2     7  1
    6     2     6  1
    7     2     8  1
    8     6   126  1
    9     6   127  1
   10     8     9  1
   11     8    10  1
   12     8    14  1
   13    11    15  1
   14    11    14  1
   15    11    12  1
   16    11    13  1
   17    15    16  1
   18    16    18  1
   19    16    17  1
   20    16    19  1
   21    19    21  1
   22    19    20  1
   23    19    27  1
   24    21    22  1
   25    22    24  1
   26    22    23  1
   27    24    26  1
   28    24    25  1
   29    24    36  1
   30    27    29  1
   31    27    30  1
   32    27    28  1
   33    30    31  1
   34    31    33  1
   35    31    32  1
   36    33    83  1
   37    33    35  1
   38    33    34  1
   39    36    39  1
   40    36    38  1
   41    36    37  1
   42    39    41  1
   43    39    40  1
   44    39    42  1
   45    42    43  1
   46    42    44  1
   47    42    45  1
   48    45    47  1
   49    45    46  1
   50    45    48  1
   51    48    51  1
   52    48    49  1
   53    48    50  1
   54    51    53  1
   55    51    52  1
   56    51    54  1
   57    54    56  2
   58    54    55  1
   59    56    57  1
   60    56    58  1
   61    58    61  1
   62    58    59  1
   63    58    60  1
   64    61    64  1
   65    61    62  1
   66    61    63  1
   67    64    67  1
   68    64    66  1
   69    64    65  1
   70    67    70  1
   71    67    69  1
   72    67    68  1
   73    70    73  1
   74    70    72  1
   75    70    71  1
   76    73    76  1
   77    73    75  1
   78    73    74  1
   79    76    78  1
   80    76    79  1
   81    76    77  1
   82    79    80  1
   83    79    81  1
   84    79    82  1
   85    83    84  1
   86    83    85  1
   87    83    86  1
   88    86    88  1
   89    86    89  1
   90    86    87  1
   91    89    92  1
   92    89    91  1
   93    89    90  1
   94    92    94  1
   95    92    95  1
   96    92    93  1
   97    95    98  1
   98    95    97  1
   99    95    96  1
  100    98   100  1
  101    98    99  1
  102    98   101  1
  103   101   104  1
  104   101   102  1
  105   101   103  1
  106   104   106  1
  107   104   105  1
  108   104   107  1
  109   107   110  1
  110   107   108  1
  111   107   109  1
  112   110   112  1
  113   110   111  1
  114   110   113  1
  115   113   116  1
  116   113   114  1
  117   113   115  1
  118   116   117  1
  119   116   119  1
  120   116   118  1
  121   119   122  1
  122   119   120  1
  123   119   121  1
  124   122   124  1
  125   122   125  1
  126   122   123  1

@<TRIPOS>SUBSTRUCTURE
1 ****        1 TEMP                        0 ****  **** 0 ROOT
