@<TRIPOS>MOLECULE
generated by VMD
   80   79    1    0    0
SMALL
NO_CHARGES
****
Energy = 0

@<TRIPOS>ATOM
      1  H        -36.6512  -42.3533   66.9845    H    1  POPC         0.000000
      2  H        -35.9753  -41.6985   60.9946    H    1  POPC         0.000000
      3  C21      -35.0402  -41.7225   61.3481  C21    1  POPC         0.000000
      4  C22      -34.3792  -41.6992   59.9566  C22    1  POPC         0.000000
      5  H2R      -33.8471  -40.7949   59.7634  H2R    1  POPC         0.000000
      6  H2S      -33.7599  -42.5510   59.7526  H2S    1  POPC         0.000000
      7  C23      -35.5135  -41.8007   58.8638  C23    1  POPC         0.000000
      8  H3R      -35.9602  -42.7773   58.8849  H3R    1  POPC         0.000000
      9  H3S      -36.3339  -41.0760   58.9449  H3S    1  POPC         0.000000
     10  C24      -34.8765  -41.9128   57.4463  C24    1  POPC         0.000000
     11  H        -33.8701  -40.4170   62.8762    H    1  POPC         0.000000
     12  C        -34.1294  -42.7217   57.4301    C    1  POPC         0.000000
     13  C25      -35.7068  -42.0562   56.1888  C25    1  POPC         0.000000
     14  H        -35.1790  -39.6105   62.3118    H    1  POPC         0.000000
     15  H5S      -36.4596  -41.1893   56.1269  H5S    1  POPC         0.000000
     16  C26      -34.9438  -42.1276   54.8703  C26    1  POPC         0.000000
     17  H6R      -34.4519  -41.1552   54.7313  H6R    1  POPC         0.000000
     18  H6S      -34.1736  -42.9753   54.9375  H6S    1  POPC         0.000000
     19  C27      -35.7871  -42.3486   53.6038  C27    1  POPC         0.000000
     20  H7R      -36.1352  -43.4232   53.5843  H7R    1  POPC         0.000000
     21  H7S      -36.7653  -41.7126   53.6197  H7S    1  POPC         0.000000
     22  C28      -35.0926  -41.8482   52.3181  C28    1  POPC         0.000000
     23  H        -34.1491  -40.3349   61.2645    H    1  POPC         0.000000
     24  H8S      -34.0218  -42.2234   52.1581  H8S    1  POPC         0.000000
     25  C29      -35.9500  -42.2302   51.0716  C29    1  POPC         0.000000
     26  C        -36.9174  -41.6875   50.9286    C    1  POPC         0.000000
     27 C210      -35.6059  -43.0440   49.9923 C210    1  POPC         0.000000
     28 H101      -36.4107  -43.1101   49.2929 H101    1  POPC         0.000000
     29 C211      -34.3381  -43.8357   49.7243 C211    1  POPC         0.000000
     30 H11R      -33.4853  -43.6075   50.4765 H11R    1  POPC         0.000000
     31 H11S      -34.5646  -44.8284   49.9648 H11S    1  POPC         0.000000
     32 C212      -33.7315  -43.5907   48.3963 C212    1  POPC         0.000000
     33  H        -35.5493  -41.2200   67.4130    H    1  POPC         0.000000
     34 H12S      -32.8737  -44.2332   48.2272 H12S    1  POPC         0.000000
     35 C213      -34.5871  -43.8291   47.1722 C213    1  POPC         0.000000
     36  H        -36.3251  -43.7651   47.1293    H    1  POPC         0.000000
     37  C        -35.5159  -43.1777   47.1445    C    1  POPC         0.000000
     38 C214      -33.8265  -43.4159   45.9262 C214    1  POPC         0.000000
     39 H14R      -33.6846  -42.3658   46.0096 H14R    1  POPC         0.000000
     40 H14S      -32.9016  -43.9489   45.9210 H14S    1  POPC         0.000000
     41 C215      -34.4958  -43.7758   44.5972 C215    1  POPC         0.000000
     42 H15R      -34.6378  -44.8800   44.4999 H15R    1  POPC         0.000000
     43 H15S      -35.4510  -43.2687   44.7574 H15S    1  POPC         0.000000
     44 C216      -33.7604  -43.2368   43.3202 C216    1  POPC         0.000000
     45 H16R      -34.0214  -42.1789   43.1602 H16R    1  POPC         0.000000
     46  H        -35.4911  -42.6101   46.3215    H    1  POPC         0.000000
     47 C217      -34.1494  -43.9490   42.0145 C217    1  POPC         0.000000
     48  H        -35.5310  -42.5974   47.9587    H    1  POPC         0.000000
     49  C        -35.1665  -43.5076   41.6898    C    1  POPC         0.000000
     50 C218      -33.1381  -43.7923   40.9178 C218    1  POPC         0.000000
     51  H        -33.1007  -44.1782   39.9960    H    1  POPC         0.000000
     52 H18S      -33.1162  -42.7704   40.5842 H18S    1  POPC         0.000000
     53 H18T      -32.1972  -44.1568   41.3504 H18T    1  POPC         0.000000
     54  C        -35.1147  -41.2348   62.2179    C    1  POPC         0.000000
     55  H        -35.1351  -42.4110   66.3680    H    1  POPC         0.000000
     56  C        -34.5751  -40.3944   62.1673    C    1  POPC         0.000000
     57  C        -34.7665  -41.8200   62.9502    C    1  POPC         0.000000
     58  C        -35.4972  -41.9810   63.6136    C    1  POPC         0.000000
     59  H        -33.9969  -41.3618   63.3950    H    1  POPC         0.000000
     60  H        -34.4652  -42.6888   62.5572    H    1  POPC         0.000000
     61  C        -35.2078  -41.6364   64.5066    C    1  POPC         0.000000
     62  H        -35.6761  -42.9633   63.6688    H    1  POPC         0.000000
     63  H        -36.3212  -41.5007   63.3133    H    1  POPC         0.000000
     64  C        -36.1631  -41.2363   65.9050    C    1  POPC         0.000000
     65  H        -35.8486  -40.9294   64.8060    H    1  POPC         0.000000
     66  C        -35.8730  -41.8085   66.6721    C    1  POPC         0.000000
     67  H        -35.8427  -44.2432   41.6498    H    1  POPC         0.000000
     68  C        -36.3583  -40.4455   66.4852    C    1  POPC         0.000000
     69  H        -36.0843  -40.6548   67.4238    H    1  POPC         0.000000
     70  H        -37.3386  -40.2510   66.4514    H    1  POPC         0.000000
     71  H        -35.8426  -39.6584   66.1468    H    1  POPC         0.000000
     72  H        -35.0660  -43.0874   40.7880    H    1  POPC         0.000000
     73  H        -35.4506  -42.8191   42.3571    H    1  POPC         0.000000
     74  H        -37.6663  -42.3502   50.9340    H    1  POPC         0.000000
     75  H        -36.8943  -41.2062   50.0524    H    1  POPC         0.000000
     76  H        -37.0365  -41.0323   51.6746    H    1  POPC         0.000000
     77  H        -36.3086  -42.7847   49.3297    H    1  POPC         0.000000
     78  H        -33.2383  -42.3371   57.1891    H    1  POPC         0.000000
     79  H        -34.4018  -43.4029   56.7506    H    1  POPC         0.000000
     80  H        -34.0854  -43.1425   58.3362    H    1  POPC         0.000000
@<TRIPOS>BOND
    1     1    66 -1
    2     2     3  1
    3     3     4  1
    4     3    54  2
    5     4     6  1
    6     4     5  1
    7     4     7  1
    8     7    10  1
    9     7     8  1
   10     7     9  1
   11    10    12  1
   12    10    13  2
   13    11    56 -1
   14    12    78 -1
   15    12    79 -1
   16    12    80 -1
   17    13    15  1
   18    13    16  1
   19    14    56 -1
   20    16    17  1
   21    16    18  1
   22    16    19  1
   23    19    22  1
   24    19    20  1
   25    19    21  1
   26    22    24  1
   27    22    25  2
   28    23    56 -1
   29    25    27  1
   30    25    26  1
   31    26    74 -1
   32    26    75 -1
   33    26    76 -1
   34    27    28  1
   35    27    29  1
   36    27    77 -1
   37    29    31  1
   38    29    32  1
   39    29    30  1
   40    32    35  2
   41    32    34  1
   42    33    66 -1
   43    35    38  1
   44    35    37  1
   45    36    37 -1
   46    37    46 -1
   47    37    48 -1
   48    38    41  1
   49    38    40  1
   50    38    39  1
   51    41    42  1
   52    41    44  1
   53    41    43  1
   54    44    47  2
   55    44    45  1
   56    47    49  1
   57    47    50  1
   58    49    67 -1
   59    49    72 -1
   60    49    73 -1
   61    50    53  1
   62    50    52  1
   63    50    51 -1
   64    54    56  1
   65    54    57  1
   66    55    66 -1
   67    57    58  1
   68    57    59  1
   69    57    60  1
   70    58    61  1
   71    58    62  1
   72    58    63  1
   73    61    64  2
   74    61    65  1
   75    64    66  1
   76    64    68 -1
   77    68    69 -1
   78    68    70 -1
   79    68    71 -1

@<TRIPOS>SUBSTRUCTURE
1 ****        1 TEMP                        0 ****  **** 0 ROOT
