@<TRIPOS>MOLECULE
generated by VMD
  148  149    1    0    0
SMALL
NO_CHARGES
****
Energy = 0

@<TRIPOS>ATOM
      1  N        -31.2884  -47.0263   65.6167    N    1  POPC         0.000000
      2  C11      -30.5617  -46.2436   66.7345  C11    1  POPC         0.000000
      3  H        -31.4126  -46.2683   64.3910    H    1  POPC         0.000000
      4  H        -29.4708  -47.0961   65.0481    H    1  POPC         0.000000
      5  C14      -30.6536  -48.3078   65.3011  C14    1  POPC         0.000000
      6  H11      -29.7973  -45.6003   66.1383  H11    1  POPC         0.000000
      7  H12      -30.0403  -46.9312   67.4123  H12    1  POPC         0.000000
      8  C        -29.4722  -48.4067   64.0660    C    1  POPC         0.000000
      9  H        -28.9902  -48.5518   65.6244    H    1  POPC         0.000000
     10  H        -28.7378  -49.0854   64.0533    H    1  POPC         0.000000
     11  C        -30.3184  -48.8192   63.7289    C    1  POPC         0.000000
     12  N        -30.6435  -47.8734   63.7285    N    1  POPC         0.000000
     13  H        -29.2151  -47.6380   63.4804    H    1  POPC         0.000000
     14  C        -29.6173  -48.0843   65.0014    C    1  POPC         0.000000
     15  O        -30.5692  -48.8620   66.2135    O    1  POPC         0.000000
     16  C15      -31.4568  -45.1617   67.5300  C15    1  POPC         0.000000
     17  H51      -32.1376  -45.8511   68.0999  H51    1  POPC         0.000000
     18  H52      -30.7770  -44.5106   68.1302  H52    1  POPC         0.000000
     19  P1       -33.5309  -43.8119   67.0967   P1    1  POPC         0.000000
     20  O3       -33.6696  -43.2371   68.4332   O3    1  POPC         0.000000
     21  O4       -34.4121  -44.9407   66.7767   O4    1  POPC         0.000000
     22  O1       -32.0557  -44.2440   66.6941   O1    1  POPC         0.000000
     23  O2       -33.7664  -42.7126   65.9548   O2    1  POPC         0.000000
     24  C1       -33.5245  -42.9255   64.5981   C1    1  POPC         0.000000
     25  HA       -32.4691  -42.6601   64.3507   HA    1  POPC         0.000000
     26  HB       -33.7177  -43.9436   64.2746   HB    1  POPC         0.000000
     27  C2       -34.3892  -42.0016   63.6579   C2    1  POPC         0.000000
     28  HS       -35.4105  -42.1379   63.9503   HS    1  POPC         0.000000
     29  O21      -34.2113  -42.3126   62.2043  O21    1  POPC         0.000000
     30  C21      -35.0403  -41.7237   61.3482  C21    1  POPC         0.000000
     31  O22      -36.0683  -41.1140   61.6670  O22    1  POPC         0.000000
     32  C22      -34.3793  -41.6999   59.9567  C22    1  POPC         0.000000
     33  H2R      -33.8477  -40.7952   59.7636  H2R    1  POPC         0.000000
     34  H2S      -33.7595  -42.5513   59.7527  H2S    1  POPC         0.000000
     35  N        -30.6439  -49.2919   62.9099    N    1  POPC         0.000000
     36  O31      -32.6818  -40.2713   63.8565  O31    1  POPC         0.000000
     37  C31      -32.2861  -39.0775   64.1204  C31    1  POPC         0.000000
     38  O32      -33.0245  -38.1290   64.2945  O32    1  POPC         0.000000
     39  C32      -30.7291  -39.0345   64.1142  C32    1  POPC         0.000000
     40  H2X      -30.3177  -38.1006   64.5710  H2X    1  POPC         0.000000
     41  H2Y      -30.3821  -39.8525   64.7427  H2Y    1  POPC         0.000000
     42  C23      -35.5135  -41.8020   58.8639  C23    1  POPC         0.000000
     43  H3R      -35.9599  -42.7787   58.8851  H3R    1  POPC         0.000000
     44  H3S      -36.3342  -41.0775   58.9448  H3S    1  POPC         0.000000
     45  C24      -34.8764  -41.9141   57.4464  C24    1  POPC         0.000000
     46  H4R      -34.2799  -41.0175   57.3864  H4R    1  POPC         0.000000
     47  H4S      -34.1287  -42.7225   57.4305  H4S    1  POPC         0.000000
     48  C25      -35.7065  -42.0585   56.1889  C25    1  POPC         0.000000
     49  H5R      -36.3320  -42.9682   56.2889  H5R    1  POPC         0.000000
     50  H5S      -36.4600  -41.1922   56.1268  H5S    1  POPC         0.000000
     51  C26      -34.9435  -42.1296   54.8705  C26    1  POPC         0.000000
     52  H6R      -34.4520  -41.1570   54.7314  H6R    1  POPC         0.000000
     53  H6S      -34.1729  -42.9770   54.9377  H6S    1  POPC         0.000000
     54  C27      -35.7866  -42.3510   53.6040  C27    1  POPC         0.000000
     55  H7R      -36.1341  -43.4258   53.5844  H7R    1  POPC         0.000000
     56  H7S      -36.7652  -41.7156   53.6199  H7S    1  POPC         0.000000
     57  C28      -35.0924  -41.8501   52.3183  C28    1  POPC         0.000000
     58  H8R      -35.1039  -40.6951   52.4946  H8R    1  POPC         0.000000
     59  H8S      -34.0214  -42.2247   52.1583  H8S    1  POPC         0.000000
     60  C29      -35.9496  -42.2325   51.0718  C29    1  POPC         0.000000
     61  H91      -36.9173  -41.6904   50.9288  H91    1  POPC         0.000000
     62 C210      -35.6050  -43.0461   49.9924 C210    1  POPC         0.000000
     63 H101      -36.4097  -43.1125   49.2930 H101    1  POPC         0.000000
     64 C211      -34.3368  -43.8371   49.7245 C211    1  POPC         0.000000
     65 H11R      -33.4841  -43.6086   50.4767 H11R    1  POPC         0.000000
     66 H11S      -34.5628  -44.8300   49.9649 H11S    1  POPC         0.000000
     67 C212      -33.7302  -43.5918   48.3965 C212    1  POPC         0.000000
     68 H12R      -33.4083  -42.5398   48.3011 H12R    1  POPC         0.000000
     69 H12S      -32.8721  -44.2338   48.2274 H12S    1  POPC         0.000000
     70 C213      -34.5856  -43.8305   47.1723 C213    1  POPC         0.000000
     71 H13R      -34.8685  -44.8956   47.1287 H13R    1  POPC         0.000000
     72 H13S      -35.5147  -43.1795   47.1445 H13S    1  POPC         0.000000
     73 C214      -33.8251  -43.4171   45.9264 C214    1  POPC         0.000000
     74 H14R      -33.6832  -42.3670   46.0100 H14R    1  POPC         0.000000
     75 H14S      -32.9001  -43.9500   45.9211 H14S    1  POPC         0.000000
     76 C215      -34.4944  -43.7768   44.5973 C215    1  POPC         0.000000
     77 H15R      -34.6363  -44.8810   44.4999 H15R    1  POPC         0.000000
     78 H15S      -35.4496  -43.2698   44.7576 H15S    1  POPC         0.000000
     79 C216      -33.7590  -43.2375   43.3204 C216    1  POPC         0.000000
     80 H16R      -34.0199  -42.1796   43.1607 H16R    1  POPC         0.000000
     81 H16S      -32.6629  -43.3264   43.4129 H16S    1  POPC         0.000000
     82 C217      -34.1482  -43.9493   42.0146 C217    1  POPC         0.000000
     83 H17R      -34.2433  -45.0962   42.1731 H17R    1  POPC         0.000000
     84 H17S      -35.1651  -43.5075   41.6899 H17S    1  POPC         0.000000
     85 C218      -33.1368  -43.7928   40.9179 C218    1  POPC         0.000000
     86 H18R      -33.4514  -44.4902   40.1092 H18R    1  POPC         0.000000
     87 H18S      -33.1147  -42.7709   40.5844 H18S    1  POPC         0.000000
     88 H18T      -32.1960  -44.1575   41.3506 H18T    1  POPC         0.000000
     89  C33      -30.1044  -39.2344   62.6976  C33    1  POPC         0.000000
     90  H3X      -30.3275  -38.2866   62.1481  H3X    1  POPC         0.000000
     91  H3Y      -28.9794  -39.1772   62.7622  H3Y    1  POPC         0.000000
     92  C34      -30.5288  -40.4506   61.8518  C34    1  POPC         0.000000
     93  H4X      -30.3898  -41.4084   62.4292  H4X    1  POPC         0.000000
     94  H4Y      -31.6315  -40.3549   61.5462  H4Y    1  POPC         0.000000
     95  C35      -29.8160  -40.4126   60.4832  C35    1  POPC         0.000000
     96  H5X      -29.7991  -39.4188   60.0458  H5X    1  POPC         0.000000
     97  H5Y      -28.7233  -40.6373   60.6049  H5Y    1  POPC         0.000000
     98  C36      -30.4041  -41.3546   59.4172  C36    1  POPC         0.000000
     99  H6X      -30.2210  -42.4206   59.7898  H6X    1  POPC         0.000000
    100  H6Y      -31.5329  -41.2298   59.3366  H6Y    1  POPC         0.000000
    101  C37      -29.9142  -41.2374   58.0235  C37    1  POPC         0.000000
    102  H7X      -30.0634  -40.1675   57.6960  H7X    1  POPC         0.000000
    103  H7Y      -28.8462  -41.3963   57.8911  H7Y    1  POPC         0.000000
    104  C38      -30.5870  -41.9875   56.8784  C38    1  POPC         0.000000
    105  H8X      -30.5640  -43.0294   57.2309  H8X    1  POPC         0.000000
    106  H8Y      -31.6259  -41.5896   57.0056  H8Y    1  POPC         0.000000
    107  C39      -29.8800  -41.7577   55.4567  C39    1  POPC         0.000000
    108  H9X      -29.9160  -40.6408   55.1993  H9X    1  POPC         0.000000
    109  H9Y      -28.8334  -42.2164   55.5536  H9Y    1  POPC         0.000000
    110 C310      -30.5287  -42.3448   54.2157 C310    1  POPC         0.000000
    111 H10X      -30.6635  -43.4316   54.3661 H10X    1  POPC         0.000000
    112 H10Y      -31.3782  -41.8052   54.0319 H10Y    1  POPC         0.000000
    113 C311      -29.6137  -42.0990   53.0130 C311    1  POPC         0.000000
    114 H11X      -29.2519  -41.0023   52.9598 H11X    1  POPC         0.000000
    115 H11Y      -28.7523  -42.7446   53.0960 H11Y    1  POPC         0.000000
    116 C312      -30.4120  -42.2520   51.6047 C312    1  POPC         0.000000
    117 H12X      -30.8948  -43.2388   51.6168 H12X    1  POPC         0.000000
    118 H12Y      -31.2615  -41.5354   51.6298 H12Y    1  POPC         0.000000
    119 C313      -29.4301  -42.0174   50.4062 C313    1  POPC         0.000000
    120 H13X      -29.3053  -40.9064   50.4527 H13X    1  POPC         0.000000
    121 H13Y      -28.4646  -42.4959   50.7320 H13Y    1  POPC         0.000000
    122 C314      -29.9596  -42.5106   49.0691 C314    1  POPC         0.000000
    123 H14X      -30.0190  -43.6677   49.0105 H14X    1  POPC         0.000000
    124 H14Y      -31.0074  -42.0243   49.0054 H14Y    1  POPC         0.000000
    125 C315      -29.1089  -42.0674   47.9563 C315    1  POPC         0.000000
    126 H15X      -29.1441  -40.9384   47.8831 H15X    1  POPC         0.000000
    127 H15Y      -28.1031  -42.3659   48.1798 H15Y    1  POPC         0.000000
    128 C316      -29.6456  -42.5304   46.5991 C316    1  POPC         0.000000
    129  H        -29.8125  -43.5132   46.5195    H    1  POPC         0.000000
    130 H16Y      -28.8542  -42.3250   45.8055 H16Y    1  POPC         0.000000
    131  H        -30.4488  -42.0357   46.2672    H    1  POPC         0.000000
    132  C        -31.4328  -47.8003   64.3382    C    1  POPC         0.000000
    133  H        -30.2438  -47.1221   63.2033    H    1  POPC         0.000000
    134  O        -32.4457  -48.7981   62.1149    O    1  POPC         0.000000
    135  C        -31.1066  -50.6155   61.2863    C    1  POPC         0.000000
    136  C        -32.2509  -49.3501   62.9257    C    1  POPC         0.000000
    137  H        -31.5632  -51.2777   60.6922    H    1  POPC         0.000000
    138  C        -32.2231  -47.4873   63.8114    C    1  POPC         0.000000
    139  H        -30.1302  -50.8242   61.3424    H    1  POPC         0.000000
    140  N        -31.5045  -50.6710   62.2021    N    1  POPC         0.000000
    141  C        -30.9258  -50.2963   62.9264    C    1  POPC         0.000000
    142  O        -32.5477  -46.6225   64.1943    O    1  POPC         0.000000
    143  N        -32.9450  -48.1771   63.8667    N    1  POPC         0.000000
    144  H        -31.2376  -49.6904   60.9300    H    1  POPC         0.000000
    145  C        -33.0472  -48.3399   64.8480    C    1  POPC         0.000000
    146  H        -34.0177  -48.2980   65.0856    H    1  POPC         0.000000
    147  H        -32.5429  -47.6366   65.3490    H    1  POPC         0.000000
    148  H        -32.6810  -49.2441   65.0680    H    1  POPC         0.000000
@<TRIPOS>BOND
    1     1     5  1
    2     1     3  1
    3     1     2  1
    4     2     6  1
    5     2     7  1
    6     2    16  1
    7     4    14  1
    8     5    14  1
    9     5    15  2
   10     8    14  1
   11     8    11  1
   12     8    10 -1
   13     8    13 -1
   14     9    14  1
   15    11    12  1
   16    11    35  2
   17    12   132  1
   18    12   133 -1
   19    16    17  1
   20    16    22  1
   21    16    18  1
   22    19    21  1
   23    19    22  1
   24    19    23  1
   25    19    20  1
   26    23    24  1
   27    24    26  1
   28    24    27  1
   29    24    25  1
   30    27    29  1
   31    27    28  1
   32    27    36  1
   33    29    30  1
   34    30    32  1
   35    30    31  1
   36    32    34  1
   37    32    33  1
   38    32    42  1
   39    35   141  1
   40    36    37  1
   41    37    39  1
   42    37    38  1
   43    39    89  1
   44    39    41  1
   45    39    40  1
   46    42    45  1
   47    42    43  1
   48    42    44  1
   49    45    47  1
   50    45    46  1
   51    45    48  1
   52    48    49  1
   53    48    50  1
   54    48    51  1
   55    51    52  1
   56    51    53  1
   57    51    54  1
   58    54    57  1
   59    54    55  1
   60    54    56  1
   61    57    59  1
   62    57    58  1
   63    57    60  1
   64    60    62  2
   65    60    61  1
   66    62    63  1
   67    62    64  1
   68    64    66  1
   69    64    67  1
   70    64    65  1
   71    67    70  1
   72    67    69  1
   73    67    68  1
   74    70    71  1
   75    70    73  1
   76    70    72  1
   77    73    76  1
   78    73    75  1
   79    73    74  1
   80    76    77  1
   81    76    79  1
   82    76    78  1
   83    79    82  1
   84    79    80  1
   85    79    81  1
   86    82    83  1
   87    82    84  1
   88    82    85  1
   89    85    86  1
   90    85    88  1
   91    85    87  1
   92    89    91  1
   93    89    92  1
   94    89    90  1
   95    92    95  1
   96    92    94  1
   97    92    93  1
   98    95    96  1
   99    95    97  1
  100    95    98  1
  101    98   100  1
  102    98   101  1
  103    98    99  1
  104   101   104  1
  105   101   103  1
  106   101   102  1
  107   104   106  1
  108   104   107  1
  109   104   105  1
  110   107   110  1
  111   107   109  1
  112   107   108  1
  113   110   112  1
  114   110   111  1
  115   110   113  1
  116   113   116  1
  117   113   115  1
  118   113   114  1
  119   116   118  1
  120   116   117  1
  121   116   119  1
  122   119   122  1
  123   119   121  1
  124   119   120  1
  125   122   123  1
  126   122   125  1
  127   122   124  1
  128   125   128  1
  129   125   126  1
  130   125   127  1
  131   128   130  1
  132   128   129  1
  133   128   131  1
  134   132   138  1
  135   132   141  2
  136   134   136  2
  137   135   140 -1
  138   135   137 -1
  139   135   139 -1
  140   135   144 -1
  141   136   143  1
  142   136   140  1
  143   138   142  2
  144   138   143  1
  145   140   141  1
  146   143   145 -1
  147   145   146 -1
  148   145   147 -1
  149   145   148 -1
  150   156   158  1
  150   158   156  1
  151   169   165  1
  152   169   164  1

@<TRIPOS>SUBSTRUCTURE
1 ****        1 TEMP                        0 ****  **** 0 ROOT
